0
     RDKit          3D

 57 60  0  0  0  0  0  0  0  0999 V2000
    4.6889    1.2338    1.3293 C   0  0  0  0  0  0  0  0  0  0  0  0
    4.6896    0.2955    0.1551 C   0  0  0  0  0  0  0  0  0  0  0  0
    3.3212    0.2974   -0.5238 C   0  0  0  0  0  0  0  0  0  0  0  0
    2.1745   -0.0062    0.4746 C   0  0  1  0  0  0  0  0  0  0  0  0
    2.2925    0.8419    1.7427 C   0  0  0  0  0  0  0  0  0  0  0  0
    3.4578    1.4002    2.1156 C   0  0  0  0  0  0  0  0  0  0  0  0
    0.7799    0.2096   -0.1889 C   0  0  2  0  0  0  0  0  0  0  0  0
   -0.3559    0.0054    0.8620 C   0  0  1  0  0  0  0  0  0  0  0  0
   -0.2015    1.0503    1.9819 C   0  0  0  0  0  0  0  0  0  0  0  0
    1.1319    0.8737    2.7091 C   0  0  0  0  0  0  0  0  0  0  0  0
    0.5736   -0.6905   -1.4430 C   0  0  0  0  0  0  0  0  0  0  0  0
   -0.8376   -0.5439   -2.0579 C   0  0  0  0  0  0  0  0  0  0  0  0
   -1.9400   -0.8544   -1.0064 C   0  0  1  0  0  0  0  0  0  0  0  0
   -1.7255    0.1415    0.1562 C   0  0  1  0  0  0  0  0  0  0  0  0
   -3.4185   -0.5010   -1.3987 C   0  0  2  0  0  0  0  0  0  0  0  0
   -4.1042   -0.2267   -0.0286 C   0  0  0  0  0  0  0  0  0  0  0  0
   -2.9890    0.0364    0.9964 C   0  0  0  0  0  0  0  0  0  0  0  0
   -1.8607   -2.3681   -0.5358 C   0  0  0  0  0  0  0  0  0  0  0  0
   -1.7119   -3.4106   -1.6574 C   0  0  0  0  0  0  0  0  0  0  0  0
   -4.0573   -1.5870   -2.0805 O   0  0  0  0  0  0  0  0  0  0  0  0
   -5.4024   -1.6107   -2.4756 C   0  0  0  0  0  0  0  0  0  0  0  0
   -5.9419   -2.8225   -3.1549 C   0  0  0  0  0  0  0  0  0  0  0  0
   -6.1701   -0.6417   -2.2276 O   0  0  0  0  0  0  0  0  0  0  0  0
    5.7784    1.8078    1.7399 N   0  0  0  0  0  0  0  0  0  0  0  0
   -3.4950    0.7121   -2.2511 C   0  0  0  0  0  0  0  0  0  0  0  0
   -3.5568    1.6579   -2.9153 N   0  0  0  0  0  0  0  0  0  0  0  0
    6.9841    1.6398    1.0972 O   0  0  0  0  0  0  0  0  0  0  0  0
    5.4536    0.5989   -0.5928 H   0  0  0  0  0  0  0  0  0  0  0  0
    4.9311   -0.7294    0.5107 H   0  0  0  0  0  0  0  0  0  0  0  0
    3.1560    1.2895   -1.0003 H   0  0  0  0  0  0  0  0  0  0  0  0
    3.3467   -0.4730   -1.3228 H   0  0  0  0  0  0  0  0  0  0  0  0
    2.2549   -1.0731    0.7812 H   0  0  0  0  0  0  0  0  0  0  0  0
    3.5181    1.9600    3.0422 H   0  0  0  0  0  0  0  0  0  0  0  0
    0.7335    1.2659   -0.5428 H   0  0  0  0  0  0  0  0  0  0  0  0
   -0.2615   -0.9895    1.3405 H   0  0  0  0  0  0  0  0  0  0  0  0
   -1.0177    0.9349    2.7268 H   0  0  0  0  0  0  0  0  0  0  0  0
   -0.2630    2.0793    1.5628 H   0  0  0  0  0  0  0  0  0  0  0  0
    1.1192   -0.0809    3.2784 H   0  0  0  0  0  0  0  0  0  0  0  0
    1.2391    1.7031    3.4427 H   0  0  0  0  0  0  0  0  0  0  0  0
    0.7795   -1.7494   -1.1838 H   0  0  0  0  0  0  0  0  0  0  0  0
    1.2954   -0.4011   -2.2345 H   0  0  0  0  0  0  0  0  0  0  0  0
   -0.9275    0.4986   -2.4321 H   0  0  0  0  0  0  0  0  0  0  0  0
   -0.9385   -1.2008   -2.9466 H   0  0  0  0  0  0  0  0  0  0  0  0
   -1.7377    1.1780   -0.2630 H   0  0  0  0  0  0  0  0  0  0  0  0
   -4.7998    0.6412   -0.0748 H   0  0  0  0  0  0  0  0  0  0  0  0
   -4.6949   -1.1108    0.2979 H   0  0  0  0  0  0  0  0  0  0  0  0
   -2.9091   -0.8088    1.7148 H   0  0  0  0  0  0  0  0  0  0  0  0
   -3.1798    0.9776    1.5566 H   0  0  0  0  0  0  0  0  0  0  0  0
   -2.7635   -2.6346    0.0539 H   0  0  0  0  0  0  0  0  0  0  0  0
   -1.0086   -2.5470    0.1421 H   0  0  0  0  0  0  0  0  0  0  0  0
   -2.4211   -3.2513   -2.4906 H   0  0  0  0  0  0  0  0  0  0  0  0
   -0.6814   -3.4015   -2.0677 H   0  0  0  0  0  0  0  0  0  0  0  0
   -1.8937   -4.4239   -1.2409 H   0  0  0  0  0  0  0  0  0  0  0  0
   -6.4488   -3.4691   -2.4090 H   0  0  0  0  0  0  0  0  0  0  0  0
   -5.1143   -3.3919   -3.6276 H   0  0  0  0  0  0  0  0  0  0  0  0
   -6.6690   -2.5272   -3.9405 H   0  0  0  0  0  0  0  0  0  0  0  0
    7.8128    2.1037    1.4467 H   0  0  0  0  0  0  0  0  0  0  0  0
  1  2  1  0
  2  3  1  0
  4  3  1  0
  4  5  1  0
  5  6  2  0
  1  6  1  0
  4  7  1  0
  7  8  1  0
  8  9  1  0
  9 10  1  0
  5 10  1  0
  7 11  1  0
 11 12  1  0
 12 13  1  0
 13 14  1  0
  8 14  1  0
 13 15  1  0
 15 16  1  0
 16 17  1  0
 14 17  1  0
 13 18  1  1
 18 19  1  0
 15 20  1  0
 20 21  1  0
 21 22  1  0
 21 23  2  0
  1 24  2  0
 15 25  1  6
 25 26  3  0
 24 27  1  0
  2 28  1  0
  2 29  1  0
  3 30  1  0
  3 31  1  0
  4 32  1  1
  6 33  1  0
  7 34  1  6
  8 35  1  1
  9 36  1  0
  9 37  1  0
 10 38  1  0
 10 39  1  0
 11 40  1  0
 11 41  1  0
 12 42  1  0
 12 43  1  0
 14 44  1  6
 16 45  1  0
 16 46  1  0
 17 47  1  0
 17 48  1  0
 18 49  1  0
 18 50  1  0
 19 51  1  0
 19 52  1  0
 19 53  1  0
 22 54  1  0
 22 55  1  0
 22 56  1  0
 27 57  1  0
M  END
>  <Connectivity>  (1) 
[[0, 1], [1, 2], [2, 3]]

>  <DOI>  (1) 
10.1124/dmd.116.073940

>  <Clean Energy>  (1) 
221.694

$$$$
1
     RDKit          3D

 52 55  0  0  0  0  0  0  0  0999 V2000
    2.6536    1.8005   -2.3174 C   0  0  0  0  0  0  0  0  0  0  0  0
    1.6471    2.7438   -1.7022 C   0  0  0  0  0  0  0  0  0  0  0  0
    0.2217    2.2681   -1.9841 C   0  0  0  0  0  0  0  0  0  0  0  0
    0.0004    0.7881   -1.5960 C   0  0  1  0  0  0  0  0  0  0  0  0
    1.0897   -0.0999   -2.1647 C   0  0  0  0  0  0  0  0  0  0  0  0
    2.2990    0.3802   -2.5017 C   0  0  0  0  0  0  0  0  0  0  0  0
   -0.0889    0.4879   -0.0720 C   0  0  2  0  0  0  0  0  0  0  0  0
   -0.3993   -1.0373    0.1248 C   0  0  1  0  0  0  0  0  0  0  0  0
    0.7141   -1.9039   -0.5169 C   0  0  0  0  0  0  0  0  0  0  0  0
    0.8780   -1.5807   -2.0105 C   0  0  0  0  0  0  0  0  0  0  0  0
   -1.1135    1.3849    0.6765 C   0  0  0  0  0  0  0  0  0  0  0  0
   -1.2479    1.0024    2.1699 C   0  0  0  0  0  0  0  0  0  0  0  0
   -1.6460   -0.4929    2.3338 C   0  0  1  0  0  0  0  0  0  0  0  0
   -0.5407   -1.3213    1.6367 C   0  0  1  0  0  0  0  0  0  0  0  0
   -1.5622   -1.0974    3.7800 C   0  0  2  0  0  0  0  0  0  0  0  0
   -1.2964   -2.6119    3.5307 C   0  0  0  0  0  0  0  0  0  0  0  0
   -0.7816   -2.7531    2.0885 C   0  0  0  0  0  0  0  0  0  0  0  0
   -3.0870   -0.7618    1.7253 C   0  0  0  0  0  0  0  0  0  0  0  0
   -4.1764    0.2512    2.1159 C   0  0  0  0  0  0  0  0  0  0  0  0
   -2.7575   -0.9142    4.4981 O   0  0  0  0  0  0  0  0  0  0  0  0
    3.8770    2.1635   -2.5761 N   0  0  0  0  0  0  0  0  0  0  0  0
   -0.4458   -0.5189    4.5694 C   0  0  0  0  0  0  0  0  0  0  0  0
    0.4244   -0.0694    5.1860 N   0  0  0  0  0  0  0  0  0  0  0  0
    4.3980    3.4205   -2.3374 O   0  0  0  0  0  0  0  0  0  0  0  0
    1.7445    3.7595   -2.1392 H   0  0  0  0  0  0  0  0  0  0  0  0
    1.8186    2.8053   -0.6065 H   0  0  0  0  0  0  0  0  0  0  0  0
   -0.5118    2.9377   -1.4926 H   0  0  0  0  0  0  0  0  0  0  0  0
    0.0361    2.3688   -3.0772 H   0  0  0  0  0  0  0  0  0  0  0  0
   -0.9652    0.4878   -2.0620 H   0  0  0  0  0  0  0  0  0  0  0  0
    3.0746   -0.3015   -2.8319 H   0  0  0  0  0  0  0  0  0  0  0  0
    0.9085    0.6997    0.3784 H   0  0  0  0  0  0  0  0  0  0  0  0
   -1.3337   -1.3035   -0.4066 H   0  0  0  0  0  0  0  0  0  0  0  0
    0.4595   -2.9810   -0.4182 H   0  0  0  0  0  0  0  0  0  0  0  0
    1.6811   -1.7303    0.0056 H   0  0  0  0  0  0  0  0  0  0  0  0
   -0.0427   -1.8764   -2.5588 H   0  0  0  0  0  0  0  0  0  0  0  0
    1.7239   -2.1686   -2.4295 H   0  0  0  0  0  0  0  0  0  0  0  0
   -0.7733    2.4407    0.6495 H   0  0  0  0  0  0  0  0  0  0  0  0
   -2.0984    1.3394    0.1676 H   0  0  0  0  0  0  0  0  0  0  0  0
   -1.9812    1.6676    2.6710 H   0  0  0  0  0  0  0  0  0  0  0  0
   -0.2676    1.2061    2.6520 H   0  0  0  0  0  0  0  0  0  0  0  0
    0.4452   -1.0362    2.0803 H   0  0  0  0  0  0  0  0  0  0  0  0
   -2.2354   -3.1985    3.6395 H   0  0  0  0  0  0  0  0  0  0  0  0
   -0.5573   -3.0313    4.2500 H   0  0  0  0  0  0  0  0  0  0  0  0
   -1.5465   -3.2406    1.4450 H   0  0  0  0  0  0  0  0  0  0  0  0
    0.1572   -3.3482    2.0574 H   0  0  0  0  0  0  0  0  0  0  0  0
   -3.4451   -1.7716    2.0179 H   0  0  0  0  0  0  0  0  0  0  0  0
   -3.0780   -0.7654    0.6221 H   0  0  0  0  0  0  0  0  0  0  0  0
   -4.1967    0.4627    3.2012 H   0  0  0  0  0  0  0  0  0  0  0  0
   -4.0348    1.2083    1.5731 H   0  0  0  0  0  0  0  0  0  0  0  0
   -5.1702   -0.1504    1.8253 H   0  0  0  0  0  0  0  0  0  0  0  0
   -2.6896   -1.4348    5.3422 H   0  0  0  0  0  0  0  0  0  0  0  0
    3.8882    4.1437   -1.8471 H   0  0  0  0  0  0  0  0  0  0  0  0
  1  2  1  0
  2  3  1  0
  4  3  1  0
  4  5  1  0
  5  6  2  0
  1  6  1  0
  4  7  1  0
  7  8  1  0
  8  9  1  0
  9 10  1  0
  5 10  1  0
  7 11  1  0
 11 12  1  0
 12 13  1  0
 13 14  1  0
  8 14  1  0
 13 15  1  0
 15 16  1  0
 16 17  1  0
 14 17  1  0
 13 18  1  6
 18 19  1  0
 15 20  1  0
  1 21  2  3
 15 22  1  1
 22 23  3  0
 21 24  1  0
  2 25  1  0
  2 26  1  0
  3 27  1  0
  3 28  1  0
  4 29  1  6
  6 30  1  0
  7 31  1  1
  8 32  1  6
  9 33  1  0
  9 34  1  0
 10 35  1  0
 10 36  1  0
 11 37  1  0
 11 38  1  0
 12 39  1  0
 12 40  1  0
 14 41  1  1
 16 42  1  0
 16 43  1  0
 17 44  1  0
 17 45  1  0
 18 46  1  0
 18 47  1  0
 19 48  1  0
 19 49  1  0
 19 50  1  0
 20 51  1  0
 24 52  1  0
M  END
>  <Clean Energy>  (2) 
232.521

>  <Majority>  (2) 
Undefined

>  <Enzyme>  (2) 
Undefined

>  <Species>  (2) 
Human

>  <Tissue>  (2) 
Liver Microsomes

>  <SOM>  (2) 
[19, 20]

>  <Metabolism Type>  (2) 
R1OC(=O)R2 to R1OH + R2COOH

$$$$
2
     RDKit          3D

 50 53  0  0  0  0  0  0  0  0999 V2000
   -1.3694   -2.2637    4.0745 C   0  0  0  0  0  0  0  0  0  0  0  0
    0.0222   -2.7523    3.8179 C   0  0  0  0  0  0  0  0  0  0  0  0
    0.8135   -1.7092    3.0293 C   0  0  0  0  0  0  0  0  0  0  0  0
    0.0711   -1.2966    1.7324 C   0  0  1  0  0  0  0  0  0  0  0  0
   -1.3746   -0.8905    2.0321 C   0  0  0  0  0  0  0  0  0  0  0  0
   -2.0255   -1.3730    3.1068 C   0  0  0  0  0  0  0  0  0  0  0  0
    0.8323   -0.1569    0.9905 C   0  0  2  0  0  0  0  0  0  0  0  0
   -0.0078    0.3616   -0.2165 C   0  0  1  0  0  0  0  0  0  0  0  0
   -1.3379    0.9366    0.2997 C   0  0  0  0  0  0  0  0  0  0  0  0
   -2.1679   -0.1499    0.9840 C   0  0  0  0  0  0  0  0  0  0  0  0
    2.2768   -0.5930    0.5846 C   0  0  0  0  0  0  0  0  0  0  0  0
    3.0034    0.3362   -0.4287 C   0  0  0  0  0  0  0  0  0  0  0  0
    2.0958    0.8527   -1.5848 C   0  0  1  0  0  0  0  0  0  0  0  0
    0.8198    1.4305   -0.9459 C   0  0  1  0  0  0  0  0  0  0  0  0
    2.6250    2.1609   -2.2755 C   0  0  1  0  0  0  0  0  0  0  0  0
    1.3425    2.7583   -2.9110 C   0  0  0  0  0  0  0  0  0  0  0  0
    0.1671    2.2769   -2.0412 C   0  0  0  0  0  0  0  0  0  0  0  0
    1.7762   -0.2566   -2.6965 C   0  0  0  0  0  0  0  0  0  0  0  0
    1.8949   -1.7416   -2.3354 C   0  0  0  0  0  0  0  0  0  0  0  0
    3.1295    3.0576   -1.3079 O   0  0  0  0  0  0  0  0  0  0  0  0
    3.6866    1.9295   -3.2823 C   0  0  0  0  0  0  0  0  0  0  0  0
    4.5154    1.7475   -4.0701 N   0  0  0  0  0  0  0  0  0  0  0  0
   -2.0094   -2.6819    5.0817 O   0  0  0  0  0  0  0  0  0  0  0  0
   -0.0319   -3.6987    3.2355 H   0  0  0  0  0  0  0  0  0  0  0  0
    0.5382   -2.9589    4.7820 H   0  0  0  0  0  0  0  0  0  0  0  0
    0.9795   -0.8164    3.6710 H   0  0  0  0  0  0  0  0  0  0  0  0
    1.8025   -2.1516    2.7865 H   0  0  0  0  0  0  0  0  0  0  0  0
    0.0290   -2.1816    1.0591 H   0  0  0  0  0  0  0  0  0  0  0  0
   -3.0693   -1.1330    3.2649 H   0  0  0  0  0  0  0  0  0  0  0  0
    0.9486    0.6891    1.7067 H   0  0  0  0  0  0  0  0  0  0  0  0
   -0.2529   -0.4676   -0.9092 H   0  0  0  0  0  0  0  0  0  0  0  0
   -1.1546    1.7783    1.0061 H   0  0  0  0  0  0  0  0  0  0  0  0
   -1.9335    1.3384   -0.5514 H   0  0  0  0  0  0  0  0  0  0  0  0
   -2.5100   -0.8844    0.2220 H   0  0  0  0  0  0  0  0  0  0  0  0
   -3.0733    0.3282    1.4256 H   0  0  0  0  0  0  0  0  0  0  0  0
    2.2791   -1.6398    0.2326 H   0  0  0  0  0  0  0  0  0  0  0  0
    2.9050   -0.6092    1.5008 H   0  0  0  0  0  0  0  0  0  0  0  0
    3.3969    1.1913    0.1601 H   0  0  0  0  0  0  0  0  0  0  0  0
    3.8927   -0.1807   -0.8462 H   0  0  0  0  0  0  0  0  0  0  0  0
    1.1134    2.1660   -0.1562 H   0  0  0  0  0  0  0  0  0  0  0  0
    1.3767    3.8695   -2.9492 H   0  0  0  0  0  0  0  0  0  0  0  0
    1.2046    2.3816   -3.9496 H   0  0  0  0  0  0  0  0  0  0  0  0
   -0.5500    1.6796   -2.6425 H   0  0  0  0  0  0  0  0  0  0  0  0
   -0.3737    3.1409   -1.5989 H   0  0  0  0  0  0  0  0  0  0  0  0
    0.7594   -0.1109   -3.1129 H   0  0  0  0  0  0  0  0  0  0  0  0
    2.4427   -0.1443   -3.5729 H   0  0  0  0  0  0  0  0  0  0  0  0
    1.1275   -2.0556   -1.6011 H   0  0  0  0  0  0  0  0  0  0  0  0
    2.9172   -1.9872   -1.9829 H   0  0  0  0  0  0  0  0  0  0  0  0
    1.7156   -2.3476   -3.2507 H   0  0  0  0  0  0  0  0  0  0  0  0
    3.3659    3.9114   -1.7605 H   0  0  0  0  0  0  0  0  0  0  0  0
  1  2  1  0
  2  3  1  0
  4  3  1  0
  4  5  1  0
  5  6  2  0
  1  6  1  0
  4  7  1  0
  7  8  1  0
  8  9  1  0
  9 10  1  0
  5 10  1  0
  7 11  1  0
 11 12  1  0
 12 13  1  0
 13 14  1  0
  8 14  1  0
 13 15  1  0
 15 16  1  0
 16 17  1  0
 14 17  1  0
 13 18  1  6
 18 19  1  0
 15 20  1  0
 15 21  1  6
 21 22  3  0
  1 23  2  0
  2 24  1  0
  2 25  1  0
  3 26  1  0
  3 27  1  0
  4 28  1  6
  6 29  1  0
  7 30  1  1
  8 31  1  6
  9 32  1  0
  9 33  1  0
 10 34  1  0
 10 35  1  0
 11 36  1  0
 11 37  1  0
 12 38  1  0
 12 39  1  0
 14 40  1  1
 16 41  1  0
 16 42  1  0
 17 43  1  0
 17 44  1  0
 18 45  1  0
 18 46  1  0
 19 47  1  0
 19 48  1  0
 19 49  1  0
 20 50  1  0
M  END
>  <Clean Energy>  (3) 
221.372

>  <Majority>  (3) 
Undefined

>  <Enzyme>  (3) 
Undefined

>  <Species>  (3) 
Human

>  <Tissue>  (3) 
Liver Microsomes

>  <SOM>  (3) 
[0, 20]

>  <Metabolism Type>  (3) 
R=NOH to RC=O

$$$$
3
     RDKit          3D

 70 74  0  0  0  0  0  0  0  0999 V2000
    2.3683   -2.5879   -6.1989 C   0  0  0  0  0  0  0  0  0  0  0  0
    3.3264   -2.7432   -5.0583 C   0  0  0  0  0  0  0  0  0  0  0  0
    3.7035   -1.3678   -4.5124 C   0  0  0  0  0  0  0  0  0  0  0  0
    2.4607   -0.5199   -4.1419 C   0  0  1  0  0  0  0  0  0  0  0  0
    1.4220   -0.5314   -5.2527 C   0  0  0  0  0  0  0  0  0  0  0  0
    1.3905   -1.4888   -6.1958 C   0  0  0  0  0  0  0  0  0  0  0  0
    1.7348   -0.9228   -2.8240 C   0  0  2  0  0  0  0  0  0  0  0  0
    0.5673    0.0905   -2.5615 C   0  0  1  0  0  0  0  0  0  0  0  0
   -0.4406    0.0653   -3.7374 C   0  0  0  0  0  0  0  0  0  0  0  0
    0.2467    0.3882   -5.0723 C   0  0  0  0  0  0  0  0  0  0  0  0
    2.6901   -1.0464   -1.6030 C   0  0  0  0  0  0  0  0  0  0  0  0
    1.9464   -1.3351   -0.2807 C   0  0  0  0  0  0  0  0  0  0  0  0
    0.8017   -0.3182    0.0097 C   0  0  1  0  0  0  0  0  0  0  0  0
   -0.1192   -0.2720   -1.2279 C   0  0  1  0  0  0  0  0  0  0  0  0
   -0.2442   -0.7807    1.0958 C   0  0  2  0  0  0  0  0  0  0  0  0
   -1.5107    0.0592    0.7137 C   0  0  0  0  0  0  0  0  0  0  0  0
   -1.3491    0.4879   -0.7596 C   0  0  0  0  0  0  0  0  0  0  0  0
    1.4107    1.0672    0.5215 C   0  0  0  0  0  0  0  0  0  0  0  0
    1.8480    2.1615   -0.4560 C   0  0  0  0  0  0  0  0  0  0  0  0
    0.2512   -0.5020    2.4054 O   0  0  0  0  0  0  0  0  0  0  0  0
   -0.5576   -2.2344    0.9906 C   0  0  0  0  0  0  0  0  0  0  0  0
   -0.8037   -3.3620    0.9135 N   0  0  0  0  0  0  0  0  0  0  0  0
    2.3531   -3.4356   -7.1290 O   0  0  0  0  0  0  0  0  0  0  0  0
   -0.7177   -0.6445    3.4360 C   0  0  2  0  0  0  0  0  0  0  0  0
   -1.0730    0.6516    3.8929 O   0  0  0  0  0  0  0  0  0  0  0  0
   -2.1100    0.5792    4.8575 C   0  0  1  0  0  0  0  0  0  0  0  0
   -1.6222   -0.1615    6.1275 C   0  0  1  0  0  0  0  0  0  0  0  0
   -2.6524   -0.2583    7.0793 O   0  0  0  0  0  0  0  0  0  0  0  0
   -1.0812   -1.5591    5.7502 C   0  0  2  0  0  0  0  0  0  0  0  0
   -0.4938   -2.1889    6.8617 O   0  0  0  0  0  0  0  0  0  0  0  0
   -0.0810   -1.4461    4.5848 C   0  0  1  0  0  0  0  0  0  0  0  0
    0.2537   -2.7333    4.1280 O   0  0  0  0  0  0  0  0  0  0  0  0
   -2.5376    1.9813    5.2005 C   0  0  0  0  0  0  0  0  0  0  0  0
   -1.6250    2.9004    5.7033 O   0  0  0  0  0  0  0  0  0  0  0  0
   -3.7355    2.3350    5.0334 O   0  0  0  0  0  0  0  0  0  0  0  0
    2.8529   -3.3529   -4.2601 H   0  0  0  0  0  0  0  0  0  0  0  0
    4.2440   -3.2651   -5.4026 H   0  0  0  0  0  0  0  0  0  0  0  0
    4.2672   -0.8251   -5.3024 H   0  0  0  0  0  0  0  0  0  0  0  0
    4.4080   -1.4717   -3.6643 H   0  0  0  0  0  0  0  0  0  0  0  0
    2.8244    0.5257   -4.0278 H   0  0  0  0  0  0  0  0  0  0  0  0
    0.6007   -1.5013   -6.9398 H   0  0  0  0  0  0  0  0  0  0  0  0
    1.2875   -1.9318   -2.9762 H   0  0  0  0  0  0  0  0  0  0  0  0
    0.9674    1.1116   -2.5409 H   0  0  0  0  0  0  0  0  0  0  0  0
   -1.2431    0.8122   -3.5657 H   0  0  0  0  0  0  0  0  0  0  0  0
   -0.9089   -0.9405   -3.8116 H   0  0  0  0  0  0  0  0  0  0  0  0
    0.6035    1.4391   -5.0628 H   0  0  0  0  0  0  0  0  0  0  0  0
   -0.4905    0.2876   -5.8956 H   0  0  0  0  0  0  0  0  0  0  0  0
    3.3381   -0.1564   -1.5038 H   0  0  0  0  0  0  0  0  0  0  0  0
    3.3756   -1.9058   -1.7649 H   0  0  0  0  0  0  0  0  0  0  0  0
    1.5468   -2.3672   -0.3686 H   0  0  0  0  0  0  0  0  0  0  0  0
    2.6743   -1.3532    0.5592 H   0  0  0  0  0  0  0  0  0  0  0  0
   -0.4899   -1.3095   -1.4152 H   0  0  0  0  0  0  0  0  0  0  0  0
   -2.4506   -0.5235    0.8418 H   0  0  0  0  0  0  0  0  0  0  0  0
   -1.5893    0.9720    1.3423 H   0  0  0  0  0  0  0  0  0  0  0  0
   -2.2465    0.2088   -1.3559 H   0  0  0  0  0  0  0  0  0  0  0  0
   -1.1857    1.5852   -0.8341 H   0  0  0  0  0  0  0  0  0  0  0  0
    0.6849    1.5850    1.1835 H   0  0  0  0  0  0  0  0  0  0  0  0
    2.2804    0.8511    1.1785 H   0  0  0  0  0  0  0  0  0  0  0  0
    0.9694    2.6113   -0.9641 H   0  0  0  0  0  0  0  0  0  0  0  0
    2.6035    1.8179   -1.1821 H   0  0  0  0  0  0  0  0  0  0  0  0
    2.3231    2.9838    0.1225 H   0  0  0  0  0  0  0  0  0  0  0  0
   -1.6276   -1.1990    3.0948 H   0  0  0  0  0  0  0  0  0  0  0  0
   -2.9932    0.0470    4.4299 H   0  0  0  0  0  0  0  0  0  0  0  0
   -0.7914    0.4201    6.5840 H   0  0  0  0  0  0  0  0  0  0  0  0
   -3.3577   -0.8469    6.7046 H   0  0  0  0  0  0  0  0  0  0  0  0
   -1.9311   -2.1939    5.4133 H   0  0  0  0  0  0  0  0  0  0  0  0
    0.2801   -1.6377    7.1496 H   0  0  0  0  0  0  0  0  0  0  0  0
    0.8281   -0.8917    4.9265 H   0  0  0  0  0  0  0  0  0  0  0  0
    1.1631   -2.9384    4.4676 H   0  0  0  0  0  0  0  0  0  0  0  0
   -0.6441    2.6675    5.8005 H   0  0  0  0  0  0  0  0  0  0  0  0
  1  2  1  0
  2  3  1  0
  4  3  1  0
  4  5  1  0
  5  6  2  0
  1  6  1  0
  4  7  1  0
  7  8  1  0
  8  9  1  0
  9 10  1  0
  5 10  1  0
  7 11  1  0
 11 12  1  0
 12 13  1  0
 13 14  1  0
  8 14  1  0
 13 15  1  0
 15 16  1  0
 16 17  1  0
 14 17  1  0
 13 18  1  1
 18 19  1  0
 15 20  1  0
 15 21  1  1
 21 22  3  0
  1 23  2  0
 24 25  1  0
 25 26  1  0
 26 27  1  0
 27 28  1  0
 27 29  1  0
 29 30  1  0
 29 31  1  0
 31 32  1  0
 26 33  1  0
 33 34  1  0
 33 35  2  0
 31 24  1  0
 24 20  1  0
  2 36  1  0
  2 37  1  0
  3 38  1  0
  3 39  1  0
  4 40  1  1
  6 41  1  0
  7 42  1  6
  8 43  1  1
  9 44  1  0
  9 45  1  0
 10 46  1  0
 10 47  1  0
 11 48  1  0
 11 49  1  0
 12 50  1  0
 12 51  1  0
 14 52  1  6
 16 53  1  0
 16 54  1  0
 17 55  1  0
 17 56  1  0
 18 57  1  0
 18 58  1  0
 19 59  1  0
 19 60  1  0
 19 61  1  0
 24 62  1  6
 26 63  1  6
 27 64  1  1
 28 65  1  0
 29 66  1  6
 30 67  1  0
 31 68  1  1
 32 69  1  0
 34 70  1  0
M  END
>  <Name>  (4) 
3

>  <Majority>  (4) 
Undefined

>  <Enzyme>  (4) 
Undefined

>  <Species>  (4) 
Human

>  <Tissue>  (4) 
Liver Microsomes

>  <SOM>  (4) 
[19]

>  <Metabolism Type>  (4) 
RC-OH to RC-O-Glu

$$$$
