0
     RDKit          3D

 53 55  0  0  0  0  0  0  0  0999 V2000
   -3.4424    0.7838   -0.3077 C   0  0  0  0  0  0  0  0  0  0  0  0
   -3.5106    2.3251   -0.3985 C   0  0  0  0  0  0  0  0  0  0  0  0
   -2.2754    2.9959   -0.9872 C   0  0  0  0  0  0  0  0  0  0  0  0
   -1.1881    2.2927   -1.3719 C   0  0  0  0  0  0  0  0  0  0  0  0
   -1.1992    0.7777   -1.3986 C   0  0  2  0  0  0  0  0  0  0  0  0
   -1.9853    0.3022   -0.1513 C   0  0  2  0  0  0  0  0  0  0  0  0
    0.1969    0.1700   -1.4910 C   0  0  0  0  0  0  0  0  0  0  0  0
    0.5549   -0.8791   -0.6141 C   0  0  0  0  0  0  0  0  0  0  0  0
   -0.3944   -1.4652    0.2320 O   0  0  0  0  0  0  0  0  0  0  0  0
   -1.7973   -1.2192    0.1129 C   0  0  1  0  0  0  0  0  0  0  0  0
    1.1273    0.5613   -2.4884 C   0  0  0  0  0  0  0  0  0  0  0  0
    2.4344    0.0642   -2.4544 C   0  0  0  0  0  0  0  0  0  0  0  0
    2.8154   -0.8877   -1.5003 C   0  0  0  0  0  0  0  0  0  0  0  0
    1.8626   -1.3690   -0.5944 C   0  0  0  0  0  0  0  0  0  0  0  0
   -2.2307    4.4983   -1.0424 C   0  0  0  0  0  0  0  0  0  0  0  0
   -2.4465   -1.6367    1.4445 C   0  0  0  0  0  0  0  0  0  0  0  0
   -2.3643   -2.1003   -1.0196 C   0  0  0  0  0  0  0  0  0  0  0  0
    0.7832    1.4132   -3.5402 O   0  0  0  0  0  0  0  0  0  0  0  0
    4.2364   -1.3899   -1.4548 C   0  0  0  0  0  0  0  0  0  0  0  0
    5.1747   -0.3876   -0.7670 C   0  0  0  0  0  0  0  0  0  0  0  0
    4.8776   -0.2468    0.7336 C   0  0  0  0  0  0  0  0  0  0  0  0
    5.8685    0.7125    1.4017 C   0  0  0  0  0  0  0  0  0  0  0  0
    5.5794    0.8521    2.8936 C   0  0  0  0  0  0  0  0  0  0  0  0
   -4.0624    0.4564    0.5518 H   0  0  0  0  0  0  0  0  0  0  0  0
   -3.8893    0.3499   -1.2282 H   0  0  0  0  0  0  0  0  0  0  0  0
   -4.4018    2.6147   -0.9963 H   0  0  0  0  0  0  0  0  0  0  0  0
   -3.6538    2.7273    0.6281 H   0  0  0  0  0  0  0  0  0  0  0  0
   -0.2925    2.8326   -1.6657 H   0  0  0  0  0  0  0  0  0  0  0  0
   -1.7479    0.4691   -2.3157 H   0  0  0  0  0  0  0  0  0  0  0  0
   -1.5575    0.8216    0.7397 H   0  0  0  0  0  0  0  0  0  0  0  0
    3.1508    0.4052   -3.1922 H   0  0  0  0  0  0  0  0  0  0  0  0
    2.1295   -2.1391    0.1191 H   0  0  0  0  0  0  0  0  0  0  0  0
   -3.1823    4.9375   -0.6743 H   0  0  0  0  0  0  0  0  0  0  0  0
   -1.3996    4.8752   -0.4088 H   0  0  0  0  0  0  0  0  0  0  0  0
   -2.0709    4.8311   -2.0899 H   0  0  0  0  0  0  0  0  0  0  0  0
   -3.5542   -1.6030    1.3862 H   0  0  0  0  0  0  0  0  0  0  0  0
   -2.1078   -0.9741    2.2691 H   0  0  0  0  0  0  0  0  0  0  0  0
   -2.1529   -2.6774    1.7007 H   0  0  0  0  0  0  0  0  0  0  0  0
   -1.8914   -1.8603   -1.9937 H   0  0  0  0  0  0  0  0  0  0  0  0
   -2.1578   -3.1708   -0.8053 H   0  0  0  0  0  0  0  0  0  0  0  0
   -3.4633   -1.9743   -1.1127 H   0  0  0  0  0  0  0  0  0  0  0  0
   -0.1704    1.6834   -3.7434 H   0  0  0  0  0  0  0  0  0  0  0  0
    4.5940   -1.5592   -2.4940 H   0  0  0  0  0  0  0  0  0  0  0  0
    4.2912   -2.3724   -0.9361 H   0  0  0  0  0  0  0  0  0  0  0  0
    5.0923    0.6047   -1.2639 H   0  0  0  0  0  0  0  0  0  0  0  0
    6.2195   -0.7459   -0.8972 H   0  0  0  0  0  0  0  0  0  0  0  0
    3.8465    0.1448    0.8743 H   0  0  0  0  0  0  0  0  0  0  0  0
    4.9466   -1.2458    1.2184 H   0  0  0  0  0  0  0  0  0  0  0  0
    6.9054    0.3334    1.2703 H   0  0  0  0  0  0  0  0  0  0  0  0
    5.7969    1.7152    0.9264 H   0  0  0  0  0  0  0  0  0  0  0  0
    6.3066    1.5570    3.3489 H   0  0  0  0  0  0  0  0  0  0  0  0
    4.5537    1.2479    3.0533 H   0  0  0  0  0  0  0  0  0  0  0  0
    5.6751   -0.1329    3.3986 H   0  0  0  0  0  0  0  0  0  0  0  0
  1  2  1  0
  2  3  1  0
  3  4  2  0
  5  4  1  0
  5  6  1  0
  6  1  1  0
  5  7  1  0
  7  8  2  0
  8  9  1  0
  9 10  1  0
  6 10  1  0
  7 11  1  0
 11 12  2  0
 12 13  1  0
 13 14  2  0
  8 14  1  0
  3 15  1  0
 10 16  1  1
 10 17  1  0
 11 18  1  0
 13 19  1  0
 19 20  1  0
 20 21  1  0
 21 22  1  0
 22 23  1  0
  1 24  1  0
  1 25  1  0
  2 26  1  0
  2 27  1  0
  4 28  1  0
  5 29  1  6
  6 30  1  1
 12 31  1  0
 14 32  1  0
 15 33  1  0
 15 34  1  0
 15 35  1  0
 16 36  1  0
 16 37  1  0
 16 38  1  0
 17 39  1  0
 17 40  1  0
 17 41  1  0
 18 42  1  0
 19 43  1  0
 19 44  1  0
 20 45  1  0
 20 46  1  0
 21 47  1  0
 21 48  1  0
 22 49  1  0
 22 50  1  0
 23 51  1  0
 23 52  1  0
 23 53  1  0
M  END
>  <Connectivity>  (1) 
[[0, 1, 4], [1, 2, 6], [2, 3], [4, 5]]

>  <DOI>  (1) 
10.1124/dmd.118.085548

>  <Clean Energy>  (1) 
30.5387

$$$$
1
     RDKit          3D

 54 56  0  0  0  0  0  0  0  0999 V2000
    0.7716    3.3542    2.1183 C   0  0  0  0  0  0  0  0  0  0  0  0
    2.1713    2.8001    2.3863 C   0  0  0  0  0  0  0  0  0  0  0  0
    2.9180    2.5094    1.1047 C   0  0  0  0  0  0  0  0  0  0  0  0
    2.2722    2.2859   -0.0609 C   0  0  0  0  0  0  0  0  0  0  0  0
    0.7597    2.3610   -0.2177 C   0  0  2  0  0  0  0  0  0  0  0  0
    0.0237    2.4245    1.1448 C   0  0  2  0  0  0  0  0  0  0  0  0
    0.1048    1.2640   -1.0587 C   0  0  0  0  0  0  0  0  0  0  0  0
   -1.3082    1.2333   -1.0398 C   0  0  0  0  0  0  0  0  0  0  0  0
   -2.0408    2.0410   -0.1579 O   0  0  0  0  0  0  0  0  0  0  0  0
   -1.4904    2.7873    0.9375 C   0  0  1  0  0  0  0  0  0  0  0  0
    0.7889    0.3172   -1.8708 C   0  0  0  0  0  0  0  0  0  0  0  0
    0.0596   -0.5593   -2.6880 C   0  0  0  0  0  0  0  0  0  0  0  0
   -1.3386   -0.5273   -2.7105 C   0  0  0  0  0  0  0  0  0  0  0  0
   -2.0144    0.3655   -1.8748 C   0  0  0  0  0  0  0  0  0  0  0  0
    4.4263    2.4572    1.1387 C   0  0  0  0  0  0  0  0  0  0  0  0
   -2.3035    2.4056    2.1885 C   0  0  0  0  0  0  0  0  0  0  0  0
   -1.7186    4.2845    0.6434 C   0  0  0  0  0  0  0  0  0  0  0  0
    2.1778    0.2165   -1.8727 O   0  0  0  0  0  0  0  0  0  0  0  0
   -2.1126   -1.4931   -3.5722 C   0  0  0  0  0  0  0  0  0  0  0  0
   -2.6425   -2.6868   -2.7641 C   0  0  0  0  0  0  0  0  0  0  0  0
   -1.5090   -3.5872   -2.2431 C   0  0  0  0  0  0  0  0  0  0  0  0
   -2.0327   -4.8784   -1.5966 C   0  0  0  0  0  0  0  0  0  0  0  0
   -2.7357   -4.6269   -0.2629 C   0  0  0  0  0  0  0  0  0  0  0  0
    4.9682    3.4977    0.3718 O   0  0  0  0  0  0  0  0  0  0  0  0
    0.8662    4.3742    1.6856 H   0  0  0  0  0  0  0  0  0  0  0  0
    0.2342    3.4313    3.0857 H   0  0  0  0  0  0  0  0  0  0  0  0
    2.1039    1.8660    2.9849 H   0  0  0  0  0  0  0  0  0  0  0  0
    2.7333    3.5505    2.9834 H   0  0  0  0  0  0  0  0  0  0  0  0
    2.8749    2.2390   -0.9613 H   0  0  0  0  0  0  0  0  0  0  0  0
    0.5837    3.3147   -0.7559 H   0  0  0  0  0  0  0  0  0  0  0  0
    0.0639    1.3987    1.5823 H   0  0  0  0  0  0  0  0  0  0  0  0
    0.5881   -1.2759   -3.3052 H   0  0  0  0  0  0  0  0  0  0  0  0
   -3.0975    0.3692   -1.8495 H   0  0  0  0  0  0  0  0  0  0  0  0
    4.8045    2.5178    2.1844 H   0  0  0  0  0  0  0  0  0  0  0  0
    4.7692    1.4860    0.7227 H   0  0  0  0  0  0  0  0  0  0  0  0
   -2.0087    3.0122    3.0695 H   0  0  0  0  0  0  0  0  0  0  0  0
   -2.1629    1.3304    2.4303 H   0  0  0  0  0  0  0  0  0  0  0  0
   -3.3872    2.5718    2.0063 H   0  0  0  0  0  0  0  0  0  0  0  0
   -1.4263    4.9167    1.5081 H   0  0  0  0  0  0  0  0  0  0  0  0
   -2.7954    4.4699    0.4406 H   0  0  0  0  0  0  0  0  0  0  0  0
   -1.1542    4.6140   -0.2513 H   0  0  0  0  0  0  0  0  0  0  0  0
    2.6669   -0.4613   -2.4459 H   0  0  0  0  0  0  0  0  0  0  0  0
   -2.9753   -0.9594   -4.0271 H   0  0  0  0  0  0  0  0  0  0  0  0
   -1.4852   -1.8575   -4.4153 H   0  0  0  0  0  0  0  0  0  0  0  0
   -3.3075   -3.2840   -3.4254 H   0  0  0  0  0  0  0  0  0  0  0  0
   -3.2544   -2.3112   -1.9163 H   0  0  0  0  0  0  0  0  0  0  0  0
   -0.8865   -3.0325   -1.5079 H   0  0  0  0  0  0  0  0  0  0  0  0
   -0.8535   -3.8706   -3.0954 H   0  0  0  0  0  0  0  0  0  0  0  0
   -2.7258   -5.4013   -2.2909 H   0  0  0  0  0  0  0  0  0  0  0  0
   -1.1692   -5.5538   -1.4129 H   0  0  0  0  0  0  0  0  0  0  0  0
   -2.9865   -5.5993    0.2107 H   0  0  0  0  0  0  0  0  0  0  0  0
   -3.6796   -4.0641   -0.4161 H   0  0  0  0  0  0  0  0  0  0  0  0
   -2.0735   -4.0594    0.4251 H   0  0  0  0  0  0  0  0  0  0  0  0
    4.8317    4.3325    0.8919 H   0  0  0  0  0  0  0  0  0  0  0  0
  1  2  1  0
  2  3  1  0
  3  4  2  0
  5  4  1  0
  5  6  1  0
  6  1  1  0
  5  7  1  0
  7  8  2  0
  8  9  1  0
  9 10  1  0
  6 10  1  0
  7 11  1  0
 11 12  2  0
 12 13  1  0
 13 14  2  0
  8 14  1  0
  3 15  1  0
 10 16  1  1
 10 17  1  0
 11 18  1  0
 13 19  1  0
 19 20  1  0
 20 21  1  0
 21 22  1  0
 22 23  1  0
 15 24  1  0
  1 25  1  0
  1 26  1  0
  2 27  1  0
  2 28  1  0
  4 29  1  0
  5 30  1  6
  6 31  1  1
 12 32  1  0
 14 33  1  0
 15 34  1  0
 15 35  1  0
 16 36  1  0
 16 37  1  0
 16 38  1  0
 17 39  1  0
 17 40  1  0
 17 41  1  0
 18 42  1  0
 19 43  1  0
 19 44  1  0
 20 45  1  0
 20 46  1  0
 21 47  1  0
 21 48  1  0
 22 49  1  0
 22 50  1  0
 23 51  1  0
 23 52  1  0
 23 53  1  0
 24 54  1  0
M  END
>  <Name>  (2) 
1

>  <Majority>  (2) 
Undefined

>  <Enzyme>  (2) 
Undefined

>  <Species>  (2) 
Human

>  <Tissue>  (2) 
Liver Microsomes

>  <SOM>  (2) 
[14]

>  <Metabolism Type>  (2) 
RC to RC-OH

$$$$
2
     RDKit          3D

 52 54  0  0  0  0  0  0  0  0999 V2000
   -2.9536   -3.1186   -0.8013 C   0  0  0  0  0  0  0  0  0  0  0  0
   -4.1465   -2.9648    0.1799 C   0  0  0  0  0  0  0  0  0  0  0  0
   -3.7777   -2.2477    1.4664 C   0  0  0  0  0  0  0  0  0  0  0  0
   -2.9521   -1.1906    1.4111 C   0  0  0  0  0  0  0  0  0  0  0  0
   -2.3432   -0.7984    0.0840 C   0  0  2  0  0  0  0  0  0  0  0  0
   -1.7976   -2.1107   -0.5377 C   0  0  2  0  0  0  0  0  0  0  0  0
   -1.2726    0.2796    0.2171 C   0  0  0  0  0  0  0  0  0  0  0  0
   -0.0206    0.0973   -0.4156 C   0  0  0  0  0  0  0  0  0  0  0  0
    0.2058   -0.9936   -1.2653 O   0  0  0  0  0  0  0  0  0  0  0  0
   -0.8470   -1.8373   -1.7373 C   0  0  1  0  0  0  0  0  0  0  0  0
   -1.5142    1.4989    0.9005 C   0  0  0  0  0  0  0  0  0  0  0  0
   -0.4698    2.4101    1.0893 C   0  0  0  0  0  0  0  0  0  0  0  0
    0.7989    2.1711    0.5461 C   0  0  0  0  0  0  0  0  0  0  0  0
    1.0111    1.0178   -0.2188 C   0  0  0  0  0  0  0  0  0  0  0  0
   -4.3139   -2.6925    2.7664 C   0  0  0  0  0  0  0  0  0  0  0  0
   -0.2073   -3.1442   -2.2351 C   0  0  0  0  0  0  0  0  0  0  0  0
   -1.5453   -1.1331   -2.9210 C   0  0  0  0  0  0  0  0  0  0  0  0
   -2.7774    1.8476    1.3835 O   0  0  0  0  0  0  0  0  0  0  0  0
    1.9211    3.1507    0.7805 C   0  0  0  0  0  0  0  0  0  0  0  0
    2.5255    3.0079    2.1850 C   0  0  0  0  0  0  0  0  0  0  0  0
    3.2853    1.6817    2.3596 C   0  0  0  0  0  0  0  0  0  0  0  0
    3.8651    1.5167    3.7727 C   0  0  0  0  0  0  0  0  0  0  0  0
    5.0568    2.4372    4.0353 C   0  0  0  0  0  0  0  0  0  0  0  0
   -5.1138   -3.6624    2.8391 O   0  0  0  0  0  0  0  0  0  0  0  0
   -2.5497   -4.1512   -0.7144 H   0  0  0  0  0  0  0  0  0  0  0  0
   -3.3457   -3.0139   -1.8325 H   0  0  0  0  0  0  0  0  0  0  0  0
   -4.9393   -2.3655   -0.3187 H   0  0  0  0  0  0  0  0  0  0  0  0
   -4.5800   -3.9662    0.3882 H   0  0  0  0  0  0  0  0  0  0  0  0
   -2.6524   -0.6853    2.3225 H   0  0  0  0  0  0  0  0  0  0  0  0
   -3.1528   -0.3921   -0.5617 H   0  0  0  0  0  0  0  0  0  0  0  0
   -1.1544   -2.5840    0.2438 H   0  0  0  0  0  0  0  0  0  0  0  0
   -0.6550    3.3203    1.6471 H   0  0  0  0  0  0  0  0  0  0  0  0
    1.9757    0.8385   -0.6779 H   0  0  0  0  0  0  0  0  0  0  0  0
   -4.0263   -2.1829    3.6777 H   0  0  0  0  0  0  0  0  0  0  0  0
   -0.9712   -3.8230   -2.6704 H   0  0  0  0  0  0  0  0  0  0  0  0
    0.5511   -2.9264   -3.0175 H   0  0  0  0  0  0  0  0  0  0  0  0
    0.3031   -3.6694   -1.3996 H   0  0  0  0  0  0  0  0  0  0  0  0
   -2.3173   -1.7783   -3.3867 H   0  0  0  0  0  0  0  0  0  0  0  0
   -0.7967   -0.8855   -3.7039 H   0  0  0  0  0  0  0  0  0  0  0  0
   -2.0168   -0.1805   -2.6047 H   0  0  0  0  0  0  0  0  0  0  0  0
   -3.6174    1.3290    1.1633 H   0  0  0  0  0  0  0  0  0  0  0  0
    2.7188    3.0280    0.0150 H   0  0  0  0  0  0  0  0  0  0  0  0
    1.5271    4.1840    0.6647 H   0  0  0  0  0  0  0  0  0  0  0  0
    1.7211    3.0880    2.9489 H   0  0  0  0  0  0  0  0  0  0  0  0
    3.2249    3.8563    2.3385 H   0  0  0  0  0  0  0  0  0  0  0  0
    2.5857    0.8367    2.1832 H   0  0  0  0  0  0  0  0  0  0  0  0
    4.1000    1.6078    1.6062 H   0  0  0  0  0  0  0  0  0  0  0  0
    3.0764    1.7004    4.5344 H   0  0  0  0  0  0  0  0  0  0  0  0
    4.2068    0.4655    3.8908 H   0  0  0  0  0  0  0  0  0  0  0  0
    5.8318    2.3041    3.2508 H   0  0  0  0  0  0  0  0  0  0  0  0
    4.7364    3.4990    4.0634 H   0  0  0  0  0  0  0  0  0  0  0  0
    5.5054    2.1870    5.0198 H   0  0  0  0  0  0  0  0  0  0  0  0
  1  2  1  0
  2  3  1  0
  3  4  2  0
  5  4  1  0
  5  6  1  0
  6  1  1  0
  5  7  1  0
  7  8  2  0
  8  9  1  0
  9 10  1  0
  6 10  1  0
  7 11  1  0
 11 12  2  0
 12 13  1  0
 13 14  2  0
  8 14  1  0
  3 15  1  0
 10 16  1  6
 10 17  1  0
 11 18  1  0
 13 19  1  0
 19 20  1  0
 20 21  1  0
 21 22  1  0
 22 23  1  0
 15 24  2  0
  1 25  1  0
  1 26  1  0
  2 27  1  0
  2 28  1  0
  4 29  1  0
  5 30  1  6
  6 31  1  1
 12 32  1  0
 14 33  1  0
 15 34  1  0
 16 35  1  0
 16 36  1  0
 16 37  1  0
 17 38  1  0
 17 39  1  0
 17 40  1  0
 18 41  1  0
 19 42  1  0
 19 43  1  0
 20 44  1  0
 20 45  1  0
 21 46  1  0
 21 47  1  0
 22 48  1  0
 22 49  1  0
 23 50  1  0
 23 51  1  0
 23 52  1  0
M  END
>  <Majority>  (3) 
Undefined

>  <Enzyme>  (3) 
Undefined

>  <Species>  (3) 
Human

>  <Tissue>  (3) 
Liver Microsomes

>  <SOM>  (3) 
[23, 14]

>  <Metabolism Type>  (3) 
RC-OH to RC=O

$$$$
3
     RDKit          3D

 53 55  0  0  0  0  0  0  0  0999 V2000
    2.3632   -1.2556    4.4225 C   0  0  0  0  0  0  0  0  0  0  0  0
    1.2264   -2.0395    5.1283 C   0  0  0  0  0  0  0  0  0  0  0  0
   -0.1345   -1.3853    4.9682 C   0  0  0  0  0  0  0  0  0  0  0  0
   -0.4706   -0.8846    3.7666 C   0  0  0  0  0  0  0  0  0  0  0  0
    0.5482   -0.9036    2.6492 C   0  0  2  0  0  0  0  0  0  0  0  0
    1.8666   -0.3541    3.2534 C   0  0  2  0  0  0  0  0  0  0  0  0
    0.1027   -0.1235    1.4187 C   0  0  0  0  0  0  0  0  0  0  0  0
    1.0011    0.7688    0.7911 C   0  0  0  0  0  0  0  0  0  0  0  0
    2.3217    0.8957    1.2415 O   0  0  0  0  0  0  0  0  0  0  0  0
    2.9198   -0.0276    2.1548 C   0  0  1  0  0  0  0  0  0  0  0  0
   -1.1564   -0.3525    0.8212 C   0  0  0  0  0  0  0  0  0  0  0  0
   -1.5507    0.3997   -0.2938 C   0  0  0  0  0  0  0  0  0  0  0  0
   -0.6906    1.3561   -0.8506 C   0  0  0  0  0  0  0  0  0  0  0  0
    0.5906    1.5241   -0.3100 C   0  0  0  0  0  0  0  0  0  0  0  0
   -1.0729   -1.3027    6.1102 C   0  0  0  0  0  0  0  0  0  0  0  0
    4.1512    0.6589    2.7692 C   0  0  0  0  0  0  0  0  0  0  0  0
    3.3772   -1.2701    1.3598 C   0  0  0  0  0  0  0  0  0  0  0  0
   -2.0086   -1.3355    1.3247 O   0  0  0  0  0  0  0  0  0  0  0  0
   -1.1087    2.1436   -2.0666 C   0  0  0  0  0  0  0  0  0  0  0  0
   -0.5081    1.5714   -3.3591 C   0  0  0  0  0  0  0  0  0  0  0  0
   -1.0728    0.1851   -3.7022 C   0  0  0  0  0  0  0  0  0  0  0  0
   -0.5239   -0.3147   -5.0431 C   0  0  0  0  0  0  0  0  0  0  0  0
   -1.0735   -1.6971   -5.3826 C   0  0  0  0  0  0  0  0  0  0  0  0
   -0.7652   -1.8083    7.2229 O   0  0  0  0  0  0  0  0  0  0  0  0
   -2.3058   -0.6704    5.9672 O   0  0  0  0  0  0  0  0  0  0  0  0
    3.1143   -1.9909    4.0720 H   0  0  0  0  0  0  0  0  0  0  0  0
    2.8730   -0.6122    5.1729 H   0  0  0  0  0  0  0  0  0  0  0  0
    1.4885   -2.1765    6.1990 H   0  0  0  0  0  0  0  0  0  0  0  0
    1.1642   -3.0540    4.6774 H   0  0  0  0  0  0  0  0  0  0  0  0
   -1.4192   -0.3798    3.6299 H   0  0  0  0  0  0  0  0  0  0  0  0
    0.6926   -1.9620    2.3391 H   0  0  0  0  0  0  0  0  0  0  0  0
    1.6084    0.6291    3.7165 H   0  0  0  0  0  0  0  0  0  0  0  0
   -2.5244    0.2272   -0.7361 H   0  0  0  0  0  0  0  0  0  0  0  0
    1.2841    2.2215   -0.7642 H   0  0  0  0  0  0  0  0  0  0  0  0
    4.8496    0.9831    1.9680 H   0  0  0  0  0  0  0  0  0  0  0  0
    4.6964   -0.0302    3.4485 H   0  0  0  0  0  0  0  0  0  0  0  0
    3.8466    1.5598    3.3437 H   0  0  0  0  0  0  0  0  0  0  0  0
    4.0587   -0.9594    0.5391 H   0  0  0  0  0  0  0  0  0  0  0  0
    3.9279   -1.9899    1.9982 H   0  0  0  0  0  0  0  0  0  0  0  0
    2.5169   -1.7903    0.8918 H   0  0  0  0  0  0  0  0  0  0  0  0
   -2.9143   -1.5192    0.9091 H   0  0  0  0  0  0  0  0  0  0  0  0
   -0.7667    3.1950   -1.9498 H   0  0  0  0  0  0  0  0  0  0  0  0
   -2.2173    2.1779   -2.1500 H   0  0  0  0  0  0  0  0  0  0  0  0
    0.5989    1.5152   -3.2655 H   0  0  0  0  0  0  0  0  0  0  0  0
   -0.7421    2.2736   -4.1890 H   0  0  0  0  0  0  0  0  0  0  0  0
   -2.1824    0.2413   -3.7565 H   0  0  0  0  0  0  0  0  0  0  0  0
   -0.7927   -0.5378   -2.9055 H   0  0  0  0  0  0  0  0  0  0  0  0
   -0.8075    0.3933   -5.8522 H   0  0  0  0  0  0  0  0  0  0  0  0
    0.5856   -0.3704   -4.9964 H   0  0  0  0  0  0  0  0  0  0  0  0
   -0.7812   -2.4311   -4.6017 H   0  0  0  0  0  0  0  0  0  0  0  0
   -2.1813   -1.6639   -5.4588 H   0  0  0  0  0  0  0  0  0  0  0  0
   -0.6604   -2.0323   -6.3573 H   0  0  0  0  0  0  0  0  0  0  0  0
   -2.9535   -0.6114    6.7439 H   0  0  0  0  0  0  0  0  0  0  0  0
  1  2  1  0
  2  3  1  0
  3  4  2  0
  5  4  1  0
  5  6  1  0
  6  1  1  0
  5  7  1  0
  7  8  2  0
  8  9  1  0
  9 10  1  0
  6 10  1  0
  7 11  1  0
 11 12  2  0
 12 13  1  0
 13 14  2  0
  8 14  1  0
  3 15  1  0
 10 16  1  1
 10 17  1  0
 11 18  1  0
 13 19  1  0
 19 20  1  0
 20 21  1  0
 21 22  1  0
 22 23  1  0
 15 24  2  0
 15 25  1  0
  1 26  1  0
  1 27  1  0
  2 28  1  0
  2 29  1  0
  4 30  1  0
  5 31  1  6
  6 32  1  1
 12 33  1  0
 14 34  1  0
 16 35  1  0
 16 36  1  0
 16 37  1  0
 17 38  1  0
 17 39  1  0
 17 40  1  0
 18 41  1  0
 19 42  1  0
 19 43  1  0
 20 44  1  0
 20 45  1  0
 21 46  1  0
 21 47  1  0
 22 48  1  0
 22 49  1  0
 23 50  1  0
 23 51  1  0
 23 52  1  0
 25 53  1  0
M  END
>  <Majority>  (4) 
Undefined

>  <Enzyme>  (4) 
Undefined

>  <Species>  (4) 
Human

>  <Tissue>  (4) 
Liver Microsomes

>  <SOM>  (4) 
[14]

>  <Metabolism Type>  (4) 
RCH=O to RCOOH

$$$$
4
     RDKit          3D

 54 56  0  0  0  0  0  0  0  0999 V2000
    0.5600   -2.5346   -3.1168 C   0  0  0  0  0  0  0  0  0  0  0  0
   -0.7697   -2.1839   -3.8356 C   0  0  0  0  0  0  0  0  0  0  0  0
   -1.3719   -0.8360   -3.4459 C   0  0  0  0  0  0  0  0  0  0  0  0
   -0.7944   -0.0229   -2.5343 C   0  0  0  0  0  0  0  0  0  0  0  0
    0.5718   -0.3288   -1.9569 C   0  0  2  0  0  0  0  0  0  0  0  0
    0.6409   -1.8596   -1.7328 C   0  0  2  0  0  0  0  0  0  0  0  0
    0.8815    0.4732   -0.6967 C   0  0  0  0  0  0  0  0  0  0  0  0
    1.3912   -0.1932    0.4406 C   0  0  0  0  0  0  0  0  0  0  0  0
    1.7527   -1.5444    0.3806 O   0  0  0  0  0  0  0  0  0  0  0  0
    1.8546   -2.2665   -0.8486 C   0  0  1  0  0  0  0  0  0  0  0  0
    0.7568    1.8860   -0.6502 C   0  0  0  0  0  0  0  0  0  0  0  0
    0.9351    2.5613    0.5619 C   0  0  0  0  0  0  0  0  0  0  0  0
    1.3245    1.8710    1.7170 C   0  0  0  0  0  0  0  0  0  0  0  0
    1.5680    0.4947    1.6431 C   0  0  0  0  0  0  0  0  0  0  0  0
   -2.7140   -0.4530   -4.0096 C   0  0  0  0  0  0  0  0  0  0  0  0
    1.8114   -3.7651   -0.5005 C   0  0  0  0  0  0  0  0  0  0  0  0
    3.2127   -1.9431   -1.5056 C   0  0  0  0  0  0  0  0  0  0  0  0
    0.4876    2.6513   -1.7870 O   0  0  0  0  0  0  0  0  0  0  0  0
    1.4848    2.6002    3.0270 C   0  0  0  0  0  0  0  0  0  0  0  0
    0.2807    2.3799    3.9539 C   0  0  0  0  0  0  0  0  0  0  0  0
   -1.0037    3.0215    3.4010 C   0  0  0  0  0  0  0  0  0  0  0  0
   -2.1685    2.9633    4.4006 C   0  0  0  0  0  0  0  0  0  0  0  0
   -2.7076    1.5465    4.5960 C   0  0  0  0  0  0  0  0  0  0  0  0
   -0.5790   -2.2141   -5.2259 O   0  0  0  0  0  0  0  0  0  0  0  0
    1.4165   -2.2046   -3.7446 H   0  0  0  0  0  0  0  0  0  0  0  0
    0.6228   -3.6382   -3.0209 H   0  0  0  0  0  0  0  0  0  0  0  0
   -1.5222   -2.9558   -3.5494 H   0  0  0  0  0  0  0  0  0  0  0  0
   -1.3337    0.8611   -2.2054 H   0  0  0  0  0  0  0  0  0  0  0  0
    1.3256   -0.0360   -2.7208 H   0  0  0  0  0  0  0  0  0  0  0  0
   -0.2690   -2.1630   -1.1612 H   0  0  0  0  0  0  0  0  0  0  0  0
    0.7890    3.6342    0.5957 H   0  0  0  0  0  0  0  0  0  0  0  0
    1.9165   -0.0427    2.5168 H   0  0  0  0  0  0  0  0  0  0  0  0
   -3.0921   -1.2327   -4.7042 H   0  0  0  0  0  0  0  0  0  0  0  0
   -3.4496   -0.3313   -3.1863 H   0  0  0  0  0  0  0  0  0  0  0  0
   -2.6273    0.5035   -4.5671 H   0  0  0  0  0  0  0  0  0  0  0  0
    0.8183   -4.0419   -0.0864 H   0  0  0  0  0  0  0  0  0  0  0  0
    2.0205   -4.3961   -1.3893 H   0  0  0  0  0  0  0  0  0  0  0  0
    2.5788   -3.9990    0.2685 H   0  0  0  0  0  0  0  0  0  0  0  0
    3.3531   -2.5230   -2.4416 H   0  0  0  0  0  0  0  0  0  0  0  0
    3.3029   -0.8619   -1.7359 H   0  0  0  0  0  0  0  0  0  0  0  0
    4.0402   -2.2047   -0.8118 H   0  0  0  0  0  0  0  0  0  0  0  0
    0.5132    2.2750   -2.7257 H   0  0  0  0  0  0  0  0  0  0  0  0
    1.6339    3.6892    2.8567 H   0  0  0  0  0  0  0  0  0  0  0  0
    2.4010    2.2310    3.5374 H   0  0  0  0  0  0  0  0  0  0  0  0
    0.5174    2.8311    4.9422 H   0  0  0  0  0  0  0  0  0  0  0  0
    0.1310    1.2894    4.1047 H   0  0  0  0  0  0  0  0  0  0  0  0
   -0.8016    4.0904    3.1702 H   0  0  0  0  0  0  0  0  0  0  0  0
   -1.3040    2.5227    2.4539 H   0  0  0  0  0  0  0  0  0  0  0  0
   -1.8535    3.3812    5.3814 H   0  0  0  0  0  0  0  0  0  0  0  0
   -2.9942    3.5995    4.0145 H   0  0  0  0  0  0  0  0  0  0  0  0
   -1.9560    0.9061    5.1021 H   0  0  0  0  0  0  0  0  0  0  0  0
   -2.9802    1.0956    3.6181 H   0  0  0  0  0  0  0  0  0  0  0  0
   -3.6159    1.5824    5.2336 H   0  0  0  0  0  0  0  0  0  0  0  0
   -0.4831   -3.1690   -5.4812 H   0  0  0  0  0  0  0  0  0  0  0  0
  1  2  1  0
  2  3  1  0
  3  4  2  0
  5  4  1  0
  5  6  1  0
  6  1  1  0
  5  7  1  0
  7  8  2  0
  8  9  1  0
  9 10  1  0
  6 10  1  0
  7 11  1  0
 11 12  2  0
 12 13  1  0
 13 14  2  0
  8 14  1  0
  3 15  1  0
 10 16  1  1
 10 17  1  0
 11 18  1  0
 13 19  1  0
 19 20  1  0
 20 21  1  0
 21 22  1  0
 22 23  1  0
  2 24  1  0
  1 25  1  0
  1 26  1  0
  2 27  1  0
  4 28  1  0
  5 29  1  6
  6 30  1  1
 12 31  1  0
 14 32  1  0
 15 33  1  0
 15 34  1  0
 15 35  1  0
 16 36  1  0
 16 37  1  0
 16 38  1  0
 17 39  1  0
 17 40  1  0
 17 41  1  0
 18 42  1  0
 19 43  1  0
 19 44  1  0
 20 45  1  0
 20 46  1  0
 21 47  1  0
 21 48  1  0
 22 49  1  0
 22 50  1  0
 23 51  1  0
 23 52  1  0
 23 53  1  0
 24 54  1  0
M  END
>  <Majority>  (5) 
Undefined

>  <Enzyme>  (5) 
Undefined

>  <Species>  (5) 
Human

>  <Tissue>  (5) 
Liver Microsomes

>  <SOM>  (5) 
[1]

>  <Metabolism Type>  (5) 
R1CR2 to R1C(OH)R2

$$$$
5
     RDKit          3D

 55 57  0  0  0  0  0  0  0  0999 V2000
   -2.4101    1.3711   -2.8740 C   0  0  0  0  0  0  0  0  0  0  0  0
   -2.7297    0.1738   -3.7777 C   0  0  0  0  0  0  0  0  0  0  0  0
   -2.7821   -1.1260   -2.9905 C   0  0  0  0  0  0  0  0  0  0  0  0
   -2.1631   -1.2566   -1.7965 C   0  0  0  0  0  0  0  0  0  0  0  0
   -1.3892   -0.1425   -1.1230 C   0  0  2  0  0  0  0  0  0  0  0  0
   -1.1556    1.0849   -2.0283 C   0  0  2  0  0  0  0  0  0  0  0  0
   -0.0509   -0.5185   -0.4984 C   0  0  0  0  0  0  0  0  0  0  0  0
    0.6308    0.5520    0.1137 C   0  0  0  0  0  0  0  0  0  0  0  0
    0.2485    1.8794   -0.1329 O   0  0  0  0  0  0  0  0  0  0  0  0
   -0.6594    2.3065   -1.1648 C   0  0  1  0  0  0  0  0  0  0  0  0
    0.5155   -1.8220   -0.4064 C   0  0  0  0  0  0  0  0  0  0  0  0
    1.5819   -2.0484    0.4717 C   0  0  0  0  0  0  0  0  0  0  0  0
    2.1795   -0.9904    1.1673 C   0  0  0  0  0  0  0  0  0  0  0  0
    1.7145    0.3130    0.9608 C   0  0  0  0  0  0  0  0  0  0  0  0
   -3.4744   -2.3311   -3.5850 C   0  0  0  0  0  0  0  0  0  0  0  0
    0.1064    3.2996   -2.0569 C   0  0  0  0  0  0  0  0  0  0  0  0
   -1.8140    3.0592   -0.4716 C   0  0  0  0  0  0  0  0  0  0  0  0
    0.1079   -2.8991   -1.1928 O   0  0  0  0  0  0  0  0  0  0  0  0
    3.3197   -1.2542    2.1181 C   0  0  0  0  0  0  0  0  0  0  0  0
    2.8262   -1.7969    3.4669 C   0  0  0  0  0  0  0  0  0  0  0  0
    2.0228   -0.7528    4.2563 C   0  0  0  0  0  0  0  0  0  0  0  0
    1.6169   -1.2966    5.6306 C   0  0  0  0  0  0  0  0  0  0  0  0
    0.8092   -0.2661    6.4142 C   0  0  0  0  0  0  0  0  0  0  0  0
   -3.9720    0.4111   -4.3924 O   0  0  0  0  0  0  0  0  0  0  0  0
   -4.6897   -2.5648   -2.9265 O   0  0  0  0  0  0  0  0  0  0  0  0
   -2.2515    2.2665   -3.5112 H   0  0  0  0  0  0  0  0  0  0  0  0
   -3.2833    1.5619   -2.2118 H   0  0  0  0  0  0  0  0  0  0  0  0
   -1.9213    0.0821   -4.5427 H   0  0  0  0  0  0  0  0  0  0  0  0
   -2.3072   -2.1744   -1.2327 H   0  0  0  0  0  0  0  0  0  0  0  0
   -2.0462    0.1697   -0.2835 H   0  0  0  0  0  0  0  0  0  0  0  0
   -0.3406    0.8137   -2.7406 H   0  0  0  0  0  0  0  0  0  0  0  0
    1.9763   -3.0520    0.5784 H   0  0  0  0  0  0  0  0  0  0  0  0
    2.1957    1.1483    1.4548 H   0  0  0  0  0  0  0  0  0  0  0  0
   -3.6855   -2.1653   -4.6617 H   0  0  0  0  0  0  0  0  0  0  0  0
   -2.8117   -3.2255   -3.5269 H   0  0  0  0  0  0  0  0  0  0  0  0
    0.9740    2.7983   -2.5368 H   0  0  0  0  0  0  0  0  0  0  0  0
    0.4971    4.1428   -1.4474 H   0  0  0  0  0  0  0  0  0  0  0  0
   -0.5471    3.7182   -2.8505 H   0  0  0  0  0  0  0  0  0  0  0  0
   -1.4054    3.8426    0.2025 H   0  0  0  0  0  0  0  0  0  0  0  0
   -2.4724    3.5627   -1.2109 H   0  0  0  0  0  0  0  0  0  0  0  0
   -2.4261    2.3721    0.1471 H   0  0  0  0  0  0  0  0  0  0  0  0
   -0.2457   -2.7853   -2.1329 H   0  0  0  0  0  0  0  0  0  0  0  0
    4.0061   -2.0006    1.6623 H   0  0  0  0  0  0  0  0  0  0  0  0
    3.9185   -0.3312    2.2816 H   0  0  0  0  0  0  0  0  0  0  0  0
    3.7142   -2.0986    4.0645 H   0  0  0  0  0  0  0  0  0  0  0  0
    2.2053   -2.7048    3.3008 H   0  0  0  0  0  0  0  0  0  0  0  0
    1.1055   -0.4829    3.6890 H   0  0  0  0  0  0  0  0  0  0  0  0
    2.6392    0.1633    4.3902 H   0  0  0  0  0  0  0  0  0  0  0  0
    2.5263   -1.5594    6.2139 H   0  0  0  0  0  0  0  0  0  0  0  0
    1.0022   -2.2144    5.5038 H   0  0  0  0  0  0  0  0  0  0  0  0
   -0.1203   -0.0052    5.8646 H   0  0  0  0  0  0  0  0  0  0  0  0
    0.5305   -0.6863    7.4035 H   0  0  0  0  0  0  0  0  0  0  0  0
    1.4106    0.6539    6.5757 H   0  0  0  0  0  0  0  0  0  0  0  0
   -3.8805    0.1726   -5.3519 H   0  0  0  0  0  0  0  0  0  0  0  0
   -4.4763   -3.0744   -2.1017 H   0  0  0  0  0  0  0  0  0  0  0  0
  1  2  1  0
  2  3  1  0
  3  4  2  0
  5  4  1  0
  5  6  1  0
  6  1  1  0
  5  7  1  0
  7  8  2  0
  8  9  1  0
  9 10  1  0
  6 10  1  0
  7 11  1  0
 11 12  2  0
 12 13  1  0
 13 14  2  0
  8 14  1  0
  3 15  1  0
 10 16  1  6
 10 17  1  0
 11 18  1  0
 13 19  1  0
 19 20  1  0
 20 21  1  0
 21 22  1  0
 22 23  1  0
  2 24  1  0
 15 25  1  0
  1 26  1  0
  1 27  1  0
  2 28  1  0
  4 29  1  0
  5 30  1  1
  6 31  1  6
 12 32  1  0
 14 33  1  0
 15 34  1  0
 15 35  1  0
 16 36  1  0
 16 37  1  0
 16 38  1  0
 17 39  1  0
 17 40  1  0
 17 41  1  0
 18 42  1  0
 19 43  1  0
 19 44  1  0
 20 45  1  0
 20 46  1  0
 21 47  1  0
 21 48  1  0
 22 49  1  0
 22 50  1  0
 23 51  1  0
 23 52  1  0
 23 53  1  0
 24 54  1  0
 25 55  1  0
M  END
>  <Majority>  (6) 
Undefined

>  <Enzyme>  (6) 
Undefined

>  <Species>  (6) 
Human

>  <Tissue>  (6) 
Liver Microsomes

>  <SOM>  (6) 
[14]

>  <Metabolism Type>  (6) 
RC to RC-OH

$$$$
6
     RDKit          3D

 55 57  0  0  0  0  0  0  0  0999 V2000
    1.9584   -2.7463   -2.1183 C   0  0  0  0  0  0  0  0  0  0  0  0
    0.8510   -3.6648   -2.7056 C   0  0  0  0  0  0  0  0  0  0  0  0
   -0.4174   -3.6643   -1.8496 C   0  0  0  0  0  0  0  0  0  0  0  0
   -0.8676   -2.4840   -1.3759 C   0  0  0  0  0  0  0  0  0  0  0  0
   -0.0454   -1.2340   -1.6085 C   0  0  2  0  0  0  0  0  0  0  0  0
    1.4060   -1.6075   -1.2107 C   0  0  2  0  0  0  0  0  0  0  0  0
   -0.5728   -0.0248   -0.8440 C   0  0  0  0  0  0  0  0  0  0  0  0
    0.3205    0.7513   -0.0685 C   0  0  0  0  0  0  0  0  0  0  0  0
    1.6995    0.5024   -0.0928 O   0  0  0  0  0  0  0  0  0  0  0  0
    2.3120   -0.3539   -1.0598 C   0  0  1  0  0  0  0  0  0  0  0  0
   -1.9250    0.3943   -0.9419 C   0  0  0  0  0  0  0  0  0  0  0  0
   -2.3870    1.4486   -0.1463 C   0  0  0  0  0  0  0  0  0  0  0  0
   -1.5127    2.1500    0.6940 C   0  0  0  0  0  0  0  0  0  0  0  0
   -0.1577    1.7986    0.7229 C   0  0  0  0  0  0  0  0  0  0  0  0
   -1.1789   -4.9307   -1.5175 C   0  0  0  0  0  0  0  0  0  0  0  0
    3.6980   -0.7445   -0.5213 C   0  0  0  0  0  0  0  0  0  0  0  0
    2.4827    0.4367   -2.3749 C   0  0  0  0  0  0  0  0  0  0  0  0
   -2.8284   -0.1947   -1.8295 O   0  0  0  0  0  0  0  0  0  0  0  0
   -2.0289    3.2567    1.5741 C   0  0  0  0  0  0  0  0  0  0  0  0
   -2.5917    2.6857    2.8817 C   0  0  0  0  0  0  0  0  0  0  0  0
   -3.0187    3.7943    3.8652 C   0  0  0  0  0  0  0  0  0  0  0  0
   -2.0150    4.0147    5.0090 C   0  0  0  0  0  0  0  0  0  0  0  0
   -0.6821    4.5837    4.5293 C   0  0  0  0  0  0  0  0  0  0  0  0
   -2.4789   -4.8670   -2.0385 O   0  0  0  0  0  0  0  0  0  0  0  0
    1.3704   -4.9594   -2.8743 O   0  0  0  0  0  0  0  0  0  0  0  0
    2.5430   -2.3337   -2.9642 H   0  0  0  0  0  0  0  0  0  0  0  0
    2.6636   -3.3592   -1.5163 H   0  0  0  0  0  0  0  0  0  0  0  0
    0.5691   -3.2428   -3.6999 H   0  0  0  0  0  0  0  0  0  0  0  0
   -1.7506   -2.4534   -0.7427 H   0  0  0  0  0  0  0  0  0  0  0  0
   -0.0804   -0.9884   -2.6932 H   0  0  0  0  0  0  0  0  0  0  0  0
    1.3433   -2.0451   -0.1842 H   0  0  0  0  0  0  0  0  0  0  0  0
   -3.4322    1.7334   -0.1970 H   0  0  0  0  0  0  0  0  0  0  0  0
    0.5350    2.3530    1.3444 H   0  0  0  0  0  0  0  0  0  0  0  0
   -1.2411   -5.0333   -0.4136 H   0  0  0  0  0  0  0  0  0  0  0  0
   -0.6697   -5.8464   -1.8900 H   0  0  0  0  0  0  0  0  0  0  0  0
    3.5976   -1.3193    0.4241 H   0  0  0  0  0  0  0  0  0  0  0  0
    4.2541   -1.3628   -1.2583 H   0  0  0  0  0  0  0  0  0  0  0  0
    4.2974    0.1660   -0.3075 H   0  0  0  0  0  0  0  0  0  0  0  0
    3.0132   -0.1580   -3.1455 H   0  0  0  0  0  0  0  0  0  0  0  0
    1.5026    0.7583   -2.7831 H   0  0  0  0  0  0  0  0  0  0  0  0
    3.0788    1.3571   -2.1857 H   0  0  0  0  0  0  0  0  0  0  0  0
   -2.5530   -0.8600   -2.5407 H   0  0  0  0  0  0  0  0  0  0  0  0
   -2.8264    3.8173    1.0398 H   0  0  0  0  0  0  0  0  0  0  0  0
   -1.2141    3.9808    1.7866 H   0  0  0  0  0  0  0  0  0  0  0  0
   -3.4805    2.0646    2.6352 H   0  0  0  0  0  0  0  0  0  0  0  0
   -1.8462    2.0077    3.3530 H   0  0  0  0  0  0  0  0  0  0  0  0
   -3.9843    3.4940    4.3278 H   0  0  0  0  0  0  0  0  0  0  0  0
   -3.2085    4.7546    3.3348 H   0  0  0  0  0  0  0  0  0  0  0  0
   -2.4595    4.7300    5.7353 H   0  0  0  0  0  0  0  0  0  0  0  0
   -1.8361    3.0590    5.5474 H   0  0  0  0  0  0  0  0  0  0  0  0
   -0.8420    5.5177    3.9511 H   0  0  0  0  0  0  0  0  0  0  0  0
   -0.1436    3.8419    3.9044 H   0  0  0  0  0  0  0  0  0  0  0  0
   -0.0447    4.8188    5.4063 H   0  0  0  0  0  0  0  0  0  0  0  0
   -2.3954   -5.0056   -3.0180 H   0  0  0  0  0  0  0  0  0  0  0  0
    0.8930   -5.3668   -3.6435 H   0  0  0  0  0  0  0  0  0  0  0  0
  1  2  1  0
  2  3  1  0
  3  4  2  0
  5  4  1  0
  5  6  1  0
  6  1  1  0
  5  7  1  0
  7  8  2  0
  8  9  1  0
  9 10  1  0
  6 10  1  0
  7 11  1  0
 11 12  2  0
 12 13  1  0
 13 14  2  0
  8 14  1  0
  3 15  1  0
 10 16  1  1
 10 17  1  0
 11 18  1  0
 13 19  1  0
 19 20  1  0
 20 21  1  0
 21 22  1  0
 22 23  1  0
 15 24  1  0
  2 25  1  0
  1 26  1  0
  1 27  1  0
  2 28  1  0
  4 29  1  0
  5 30  1  6
  6 31  1  1
 12 32  1  0
 14 33  1  0
 15 34  1  0
 15 35  1  0
 16 36  1  0
 16 37  1  0
 16 38  1  0
 17 39  1  0
 17 40  1  0
 17 41  1  0
 18 42  1  0
 19 43  1  0
 19 44  1  0
 20 45  1  0
 20 46  1  0
 21 47  1  0
 21 48  1  0
 22 49  1  0
 22 50  1  0
 23 51  1  0
 23 52  1  0
 23 53  1  0
 24 54  1  0
 25 55  1  0
M  END
>  <Majority>  (7) 
Undefined

>  <Enzyme>  (7) 
Undefined

>  <Species>  (7) 
Human

>  <Tissue>  (7) 
Liver Microsomes

>  <SOM>  (7) 
[1]

>  <Metabolism Type>  (7) 
R1CR2 to R1C(OH)R2

$$$$
