0
  DSViewer          3D                             0

 26 28  0  0  0  0  0  0  0  0999 V2000
   -0.0294   -1.2515    0.0003 C   0  0
   -0.3732    0.0300    0.0002 C   0  0
    0.6267    1.0398    0.0000 N   0  0
    1.8735    0.7419    0.0001 C   0  0
    2.2974   -0.6897    0.0002 C   0  0
    1.3566   -1.6232    0.0004 C   0  0
   -2.1076    0.4171    0.0001 S   0  0
   -2.4302    2.1524   -0.0003 C   0  0
    4.0445   -1.1471    0.0003 S   0  0
    4.4213   -2.9128    0.0002 C   0  0
    2.8784    1.8299   -0.0000 C   0  0
    2.4990    3.0065   -0.0001 O   0  0
    4.1814    1.5419   -0.0001 N   0  0
    5.1797    2.5305   -0.0002 C   0  0
    6.6848    2.1016   -0.0004 S   0  0
    4.8483    3.8866   -0.0002 N   0  0
    5.6966   -3.2990    0.0009 C   0  0
    6.0378   -4.6683    0.0008 N   0  0
    5.1445   -5.5776    0.0000 C   0  0
    3.7309   -5.2225   -0.0008 C   0  0
    3.3839   -3.9418   -0.0007 C   0  0
   -3.5925    2.6611   -0.0003 N   0  0
   -3.4623    4.0056   -0.0006 N   0  0
   -2.2219    4.3161   -0.0008 C   0  0
   -1.4880    3.1377   -0.0005 N   0  0
    5.5471   -7.0229   -0.0000 C   0  0
  1  2  2  0  0  0
  2  3  1  0  0  0
  3  4  2  0  0  0
  4  5  1  0  0  0
  5  6  2  0  0  0
  1  6  1  0  0  0
  2  7  1  0  0  0
  7  8  1  0  0  0
  5  9  1  0  0  0
  9 10  1  0  0  0
  4 11  1  0  0  0
 11 12  2  0  0  0
 11 13  1  0  0  0
 13 14  1  0  0  0
 14 15  2  0  0  0
 14 16  1  0  0  0
 10 17  2  0  0  0
 17 18  1  0  0  0
 18 19  2  0  0  0
 19 20  1  0  0  0
 20 21  2  0  0  0
 10 21  1  0  0  0
  8 22  2  0  0  0
 22 23  1  0  0  0
 23 24  2  0  0  0
 24 25  1  0  0  0
  8 25  1  0  0  0
 19 26  1  0  0  0
M  END
> <Connectivity>
[[0, 1, 2]]

> <DOI>
10.1124/dmd.114.058081

> <Clean Energy>
18.0462

$$$$
1
  SciTegic05122014342D

 27 29  0  0  0  0            999 V2000
   -1.1292   -1.6938    0.0000 C   0  0
   -1.1256   -0.6938    0.0000 C   0  0
   -0.2578   -0.1968    0.0000 N   0  0
    0.6064   -0.7000    0.0000 C   0  0
    0.6028   -1.7000    0.0000 C   0  0
   -0.2650   -2.1968    0.0000 C   0  0
   -1.9898   -0.1906    0.0000 S   0  0
   -2.8576   -0.6876    0.0000 C   0  0
    1.4670   -2.2030    0.0000 S   0  0
    1.4634   -3.2030    0.0000 C   0  0
    1.4742   -0.2030    0.0000 C   0  0
    1.4778    0.7968    0.0000 O   0  0
    2.3384   -0.7062    0.0000 N   0  0
    3.2062   -0.2092    0.0000 C   0  0
    3.2098    0.7906    0.0000 S   0  0
    4.0704   -0.7124    0.0000 N   0  0
    0.5956   -3.6998    0.0000 C   0  0
    0.5920   -4.6998    0.0000 N   0  0
    1.4562   -5.2030    0.0000 C   0  0
    2.3240   -4.7060    0.0000 C   0  0
    2.3276   -3.7060    0.0000 C   0  0
   -3.7696   -0.2776    0.0000 N   0  0
   -4.4416   -1.0182    0.0000 N   0  0
   -3.9446   -1.8862    0.0000 C   0  0
   -2.9658   -1.6816    0.0000 N   0  0
    1.4526   -6.2030    0.0000 C   0  0
    2.3348   -1.7062    0.0000 O   0  0
  1  2  2  0
  2  3  1  0
  3  4  2  0
  4  5  1  0
  5  6  2  0
  1  6  1  0
  2  7  1  0
  7  8  1  0
  5  9  1  0
  9 10  1  0
  4 11  1  0
 11 12  2  0
 11 13  1  0
 13 14  1  0
 14 15  2  0
 14 16  1  0
 10 17  2  0
 17 18  1  0
 18 19  2  0
 19 20  1  0
 20 21  2  0
 10 21  1  0
  8 22  2  0
 22 23  1  0
 23 24  2  0
 24 25  1  0
  8 25  1  0
 19 26  1  0
  9 27  2  0
M  END
> <Name>
1

> <Majority>
Undefined

> <Enzyme>
Undefined

> <Species>
Rat

> <Tissue>
in vivo-urine

> <SOM>
[8]

> <Metabolism Type>
R1SR2 to R1S(=O)R2

$$$$
2
  SciTegic05122014342D

 27 29  0  0  0  0            999 V2000
   -1.1209   -1.6833    0.0000 C   0  0
   -1.1469   -0.6881    0.0000 C   0  0
   -0.2615   -0.2117    0.0000 N   0  0
    0.6263   -0.6936    0.0000 C   0  0
    0.5981   -1.6888    0.0000 C   0  0
   -0.2602   -2.2121    0.0000 C   0  0
   -2.0004   -0.1946    0.0000 S   0  0
   -2.8744   -0.6986    0.0000 C   0  0
    1.4775   -2.2005    0.0000 S   0  0
    1.4790   -3.2182    0.0000 C   0  0
    1.4831   -0.1982    0.0000 C   0  0
    1.4819    0.8020    0.0000 O   0  0
    2.3497   -0.6963    0.0000 N   0  0
    3.2143   -0.1939    0.0000 C   0  0
    3.2114    0.8062    0.0000 S   0  0
    4.0816   -0.6913    0.0000 N   0  0
    0.6034   -3.6908    0.0000 C   0  0
    0.6044   -4.7182    0.0000 N   0  0
    1.4807   -5.1890    0.0000 C   0  0
    2.3561   -4.7172    0.0000 C   0  0
    2.3556   -3.6897    0.0000 C   0  0
   -3.7818   -0.2819    0.0000 N   0  0
   -4.4566   -1.0276    0.0000 N   0  0
   -3.9513   -1.8893    0.0000 C   0  0
   -2.9714   -1.6936    0.0000 N   0  0
    1.4813   -6.1993    0.0000 C   0  0
    2.3475   -6.6987    0.0000 O   0  0
  1  2  2  0
  2  3  1  0
  3  4  2  0
  4  5  1  0
  5  6  2  0
  1  6  1  0
  2  7  1  0
  7  8  1  0
  5  9  1  0
  9 10  1  0
  4 11  1  0
 11 12  2  0
 11 13  1  0
 13 14  1  0
 14 15  2  0
 14 16  1  0
 10 17  2  0
 17 18  1  0
 18 19  2  0
 19 20  1  0
 20 21  2  0
 10 21  1  0
  8 22  2  0
 22 23  1  0
 23 24  2  0
 24 25  1  0
  8 25  1  0
 19 26  1  0
 26 27  1  0
M  END
> <Name>
2

> <Majority>
Undefined

> <Enzyme>
Undefined

> <Species>
Rat

> <Tissue>
in vivo-urine

> <SOM>
[25]

> <Metabolism Type>
RC to RC-OH

$$$$
