0
  DSViewer          3D                             0

 28 31  0  0  0  0  0  0  0  0999 V2000
   -1.0105   -1.1735    0.0001 C   0  0
   -0.9585    0.1547    0.0001 C   0  0
    0.2862    0.8134    0.0001 N   0  0
    1.3899    0.1736    0.0001 C   0  0
    1.3892   -1.3123    0.0001 C   0  0
    0.2185   -1.9400    0.0001 C   0  0
   -2.4581    1.1162    0.0002 S   0  0
   -3.9186    0.0920   -0.0000 C   0  0
    2.9440   -2.2256    0.0000 S   0  0
    2.8455   -4.0211   -0.0002 C   0  0
    2.6494    0.9431    0.0001 C   0  0
    2.5992    2.1775    0.0001 O   0  0
    3.8263    0.3196    0.0002 N   0  0
    5.0453    1.0146    0.0002 C   0  0
    5.2328    2.6613   -0.0001 S   0  0
    6.8950    2.7107    0.0000 C   0  0
    7.3031    1.4300    0.0004 C   0  0
    6.1954    0.4560    0.0004 N   0  0
    3.9784   -4.7224   -0.0006 C   0  0
    3.9575   -6.1306   -0.0008 N   0  0
    2.8606   -6.7790   -0.0006 C   0  0
    1.5836   -6.0708   -0.0001 C   0  0
    1.5768   -4.7431    0.0001 C   0  0
   -3.9376   -1.1772   -0.0005 N   0  0
   -5.2310   -1.5803   -0.0005 N   0  0
   -6.0000   -0.5596    0.0000 C   0  0
   -5.2000    0.5713    0.0003 N   0  0
    2.8801   -8.2791   -0.0008 C   0  0
  1  2  2  0  0  0
  2  3  1  0  0  0
  3  4  2  0  0  0
  4  5  1  0  0  0
  5  6  2  0  0  0
  1  6  1  0  0  0
  2  7  1  0  0  0
  7  8  1  0  0  0
  5  9  1  0  0  0
  9 10  1  0  0  0
  4 11  1  0  0  0
 11 12  2  0  0  0
 11 13  1  0  0  0
 13 14  1  0  0  0
 14 15  1  0  0  0
 15 16  1  0  0  0
 16 17  2  0  0  0
 17 18  1  0  0  0
 14 18  2  0  0  0
 10 19  2  0  0  0
 19 20  1  0  0  0
 20 21  2  0  0  0
 21 22  1  0  0  0
 22 23  2  0  0  0
 10 23  1  0  0  0
  8 24  2  0  0  0
 24 25  1  0  0  0
 25 26  2  0  0  0
 26 27  1  0  0  0
  8 27  1  0  0  0
 21 28  1  0  0  0
M  END
> <Connectivity>
[[0, 1, 2, 3, 4]]

> <DOI>
10.1124/dmd.114.058081

> <Clean Energy>
39.2281

$$$$
1
  SciTegic05122014342D

 23 25  0  0  0  0            999 V2000
    4.0124   -1.0858    0.0000 C   0  0
    4.3116   -0.1316    0.0000 C   0  0
    3.6348    0.6046    0.0000 N   0  0
    2.6588    0.3866    0.0000 C   0  0
    2.3596   -0.5676    0.0000 C   0  0
    3.0364   -1.3038    0.0000 C   0  0
    5.2874    0.0864    0.0000 S   0  0
    5.5866    1.0406    0.0000 C   0  0
    1.3836   -0.7856    0.0000 S   0  0
    1.0844   -1.7398    0.0000 C   0  0
    1.9820    1.1228    0.0000 C   0  0
    2.2812    2.0770    0.0000 O   0  0
    0.1084   -1.9578    0.0000 C   0  0
   -0.1908   -2.9122    0.0000 N   0  0
    0.4860   -3.6484    0.0000 C   0  0
    1.4620   -3.4304    0.0000 C   0  0
    1.7612   -2.4762    0.0000 C   0  0
    4.9906    1.8436    0.0000 N   0  0
    5.5700    2.6586    0.0000 N   0  0
    6.5240    2.3594    0.0000 C   0  0
    6.5344    1.3594    0.0000 N   0  0
    0.1868   -4.6026    0.0000 C   0  0
    1.0060    0.9048    0.0000 O   0  0
  1  2  2  0
  2  3  1  0
  3  4  2  0
  4  5  1  0
  5  6  2  0
  1  6  1  0
  2  7  1  0
  7  8  1  0
  5  9  1  0
  9 10  1  0
  4 11  1  0
 11 12  2  0
 10 13  2  0
 13 14  1  0
 14 15  2  0
 15 16  1  0
 16 17  2  0
 10 17  1  0
  8 18  2  0
 18 19  1  0
 19 20  2  0
 20 21  1  0
  8 21  1  0
 15 22  1  0
 11 23  1  0
M  END
> <Name>
1

> <Majority>
Undefined

> <Enzyme>
Undefined

> <Species>
Rat

> <Tissue>
in vivo-urine

> <SOM>
[12, 10]

> <Metabolism Type>
R1NHC(=O)R2 to R1NH2 + R2COOH

$$$$
2
  SciTegic05122014342D

 29 32  0  0  0  0            999 V2000
    0.0989   -1.4164    0.0000 C   0  0
   -0.8220   -1.0156    0.0000 C   0  0
   -0.9060   -0.0176    0.0000 N   0  0
   -0.1067    0.5740    0.0000 C   0  0
    0.8015    0.1451    0.0000 C   0  0
    0.9162   -0.8499    0.0000 C   0  0
   -1.6203   -1.5883    0.0000 S   0  0
   -1.5331   -2.5912    0.0000 C   0  0
    1.6204    0.7342    0.0000 S   0  0
    2.5381    0.3190    0.0000 C   0  0
   -0.2021    1.5598    0.0000 C   0  0
    0.6119    2.1410    0.0000 O   0  0
   -1.1116    1.9745    0.0000 N   0  0
   -1.9261    1.3827    0.0000 C   0  0
   -1.9347    0.4055    0.0000 S   0  0
   -2.8906    0.0915    0.0000 C   0  0
   -3.4605    0.9075    0.0000 C   0  0
   -2.8768    1.7133    0.0000 N   0  0
    3.3436    0.9034    0.0000 C   0  0
    4.2522    0.4833    0.0000 N   0  0
    4.3568   -0.5143    0.0000 C   0  0
    3.5441   -1.0886    0.0000 C   0  0
    2.6302   -0.6799    0.0000 C   0  0
   -0.6683   -3.1003    0.0000 N   0  0
   -0.8935   -4.0726    0.0000 N   0  0
   -1.8873   -4.1677    0.0000 C   0  0
   -2.2778   -3.2435    0.0000 N   0  0
    5.2584   -0.9230    0.0000 C   0  0
    1.5213    1.7291    0.0000 O   0  0
  1  2  2  0
  2  3  1  0
  3  4  2  0
  4  5  1  0
  5  6  2  0
  1  6  1  0
  2  7  1  0
  7  8  1  0
  5  9  1  0
  9 10  1  0
  4 11  1  0
 11 12  2  0
 11 13  1  0
 13 14  1  0
 14 15  1  0
 15 16  1  0
 16 17  2  0
 17 18  1  0
 14 18  2  0
 10 19  2  0
 19 20  1  0
 20 21  2  0
 21 22  1  0
 22 23  2  0
 10 23  1  0
  8 24  2  0
 24 25  1  0
 25 26  2  0
 26 27  1  0
  8 27  1  0
 21 28  1  0
  9 29  2  0
M  END
> <Name>
2

> <Majority>
Undefined

> <Enzyme>
Undefined

> <Species>
Rat

> <Tissue>
in vivo-urine

> <SOM>
[8]

> <Metabolism Type>
R1SR2 to R1S(=O)R2

$$$$
3
  SciTegic05122014342D

 29 32  0  0  0  0            999 V2000
    0.0871   -1.4451    0.0000 C   0  0
   -0.8054   -1.0035    0.0000 C   0  0
   -0.9268   -0.0081    0.0000 N   0  0
   -0.0898    0.5504    0.0000 C   0  0
    0.8272    0.1622    0.0000 C   0  0
    0.8903   -0.8387    0.0000 C   0  0
   -1.6322   -1.5878    0.0000 S   0  0
   -1.5391   -2.5926    0.0000 C   0  0
    1.6329    0.7339    0.0000 S   0  0
    2.5499    0.3132    0.0000 C   0  0
   -0.1845    1.5595    0.0000 C   0  0
    0.6318    2.1370    0.0000 O   0  0
   -1.0950    1.9800    0.0000 N   0  0
   -1.9198    1.3973    0.0000 C   0  0
   -1.9260    0.3981    0.0000 S   0  0
   -2.8829    0.0991    0.0000 C   0  0
   -3.4572    0.9172    0.0000 C   0  0
   -2.8653    1.7223    0.0000 N   0  0
    3.3537    0.9095    0.0000 C   0  0
    4.2538    0.4758    0.0000 N   0  0
    4.3679   -0.5182    0.0000 C   0  0
    3.5409   -1.0820    0.0000 C   0  0
    2.6242   -0.6846    0.0000 C   0  0
   -0.6740   -3.0919    0.0000 N   0  0
   -0.8982   -4.0660    0.0000 N   0  0
   -1.8914   -4.1701    0.0000 C   0  0
   -2.2924   -3.2492    0.0000 N   0  0
    5.2681   -0.9298    0.0000 C   0  0
    6.0830   -0.3499    0.0000 O   0  0
  1  2  2  0
  2  3  1  0
  3  4  2  0
  4  5  1  0
  5  6  2  0
  1  6  1  0
  2  7  1  0
  7  8  1  0
  5  9  1  0
  9 10  1  0
  4 11  1  0
 11 12  2  0
 11 13  1  0
 13 14  1  0
 14 15  1  0
 15 16  1  0
 16 17  2  0
 17 18  1  0
 14 18  2  0
 10 19  2  0
 19 20  1  0
 20 21  2  0
 21 22  1  0
 22 23  2  0
 10 23  1  0
  8 24  2  0
 24 25  1  0
 25 26  2  0
 26 27  1  0
  8 27  1  0
 21 28  1  0
 28 29  1  0
M  END
> <Name>
3

> <Majority>
Undefined

> <Enzyme>
Undefined

> <Species>
Rat

> <Tissue>
in vivo-urine

> <SOM>
[27]

> <Metabolism Type>
RC to RC-OH

$$$$
4
  SciTegic05122014342D

 29 32  0  0  0  0            999 V2000
    0.0859   -1.4183    0.0000 C   0  0
   -0.8227   -0.9878    0.0000 C   0  0
   -0.9125   -0.0012    0.0000 N   0  0
   -0.0970    0.5827    0.0000 C   0  0
    0.8107    0.1532    0.0000 C   0  0
    0.9082   -0.8382    0.0000 C   0  0
   -1.6412   -1.5699    0.0000 S   0  0
   -2.5483   -1.1578    0.0000 C   0  0
    1.6384    0.7360    0.0000 S   0  0
    2.5592    0.3111    0.0000 C   0  0
   -0.1865    1.5699    0.0000 C   0  0
   -1.0944    1.9891    0.0000 O   0  0
    0.6327    2.1499    0.0000 N   0  0
    0.5264    3.1535    0.0000 C   0  0
   -0.3280    3.6541    0.0000 S   0  0
   -0.1184    4.6353    0.0000 C   0  0
    0.8759    4.7289    0.0000 C   0  0
    1.2802    3.8163    0.0000 N   0  0
    3.3596    0.9070    0.0000 C   0  0
    4.2607    0.4664    0.0000 N   0  0
    4.3777   -0.5254    0.0000 C   0  0
    3.5495   -1.0821    0.0000 C   0  0
    2.6284   -0.6850    0.0000 C   0  0
   -2.7442   -0.1732    0.0000 N   0  0
   -3.7383   -0.0607    0.0000 N   0  0
   -4.1616   -0.9669    0.0000 C   0  0
   -3.4230   -1.6422    0.0000 N   0  0
    5.2771   -0.9387    0.0000 C   0  0
   -1.5513   -2.5659    0.0000 O   0  0
  1  2  2  0
  2  3  1  0
  3  4  2  0
  4  5  1  0
  5  6  2  0
  1  6  1  0
  2  7  1  0
  7  8  1  0
  5  9  1  0
  9 10  1  0
  4 11  1  0
 11 12  2  0
 11 13  1  0
 13 14  1  0
 14 15  1  0
 15 16  1  0
 16 17  2  0
 17 18  1  0
 14 18  2  0
 10 19  2  0
 19 20  1  0
 20 21  2  0
 21 22  1  0
 22 23  2  0
 10 23  1  0
  8 24  2  0
 24 25  1  0
 25 26  2  0
 26 27  1  0
  8 27  1  0
 21 28  1  0
  7 29  2  0
M  END
> <Name>
4

> <Majority>
Undefined

> <Enzyme>
Undefined

> <Species>
Rat

> <Tissue>
in vivo-urine

> <SOM>
[6]

> <Metabolism Type>
R1SR2 to R1S(=O)R2

$$$$
