0
     RDKit          3D

 42 45  0  0  0  0  0  0  0  0999 V2000
   -1.0746   -0.3726   -0.3844 C   0  0  0  0  0  0  0  0  0  0  0  0
    0.3100   -0.2365   -0.1709 C   0  0  0  0  0  0  0  0  0  0  0  0
    0.7817   -0.0626    1.1407 C   0  0  0  0  0  0  0  0  0  0  0  0
   -0.1090   -0.0089    2.2157 C   0  0  0  0  0  0  0  0  0  0  0  0
   -1.4930   -0.1249    2.0031 C   0  0  0  0  0  0  0  0  0  0  0  0
   -1.9632   -0.3208    0.6940 C   0  0  0  0  0  0  0  0  0  0  0  0
   -1.5675   -0.5921   -1.6300 F   0  0  0  0  0  0  0  0  0  0  0  0
    1.2673   -0.2844   -1.3031 C   0  0  0  0  0  0  0  0  0  0  0  0
   -2.4183   -0.0815    3.1080 N   0  0  0  0  0  0  0  0  0  0  0  0
    2.4362   -1.0581   -1.2210 C   0  0  0  0  0  0  0  0  0  0  0  0
    3.3114   -1.0916   -2.2607 N   0  0  0  0  0  0  0  0  0  0  0  0
    3.1024   -0.3861   -3.4054 C   0  0  0  0  0  0  0  0  0  0  0  0
    1.9516    0.4049   -3.5275 C   0  0  0  0  0  0  0  0  0  0  0  0
    1.0372    0.4544   -2.4740 C   0  0  0  0  0  0  0  0  0  0  0  0
   -2.2584    0.5991    4.3400 C   0  0  0  0  0  0  0  0  0  0  0  0
   -3.2808    0.3399    5.2223 O   0  0  0  0  0  0  0  0  0  0  0  0
   -4.2066   -0.5649    4.6295 C   0  0  2  0  0  0  0  0  0  0  0  0
   -3.6860   -0.8024    3.1827 C   0  0  0  0  0  0  0  0  0  0  0  0
   -1.3248    1.4068    4.5873 O   0  0  0  0  0  0  0  0  0  0  0  0
   -5.6219    0.0180    4.6697 C   0  0  0  0  0  0  0  0  0  0  0  0
   -5.6485    1.2767    4.0539 O   0  0  0  0  0  0  0  0  0  0  0  0
    4.0899   -0.4644   -4.4935 C   0  0  0  0  0  0  0  0  0  0  0  0
    3.9868    0.1846   -5.6706 N   0  0  0  0  0  0  0  0  0  0  0  0
    5.0812   -0.1719   -6.3201 N   0  0  0  0  0  0  0  0  0  0  0  0
    5.8117   -1.0085   -5.6037 N   0  0  0  0  0  0  0  0  0  0  0  0
    5.2148   -1.2078   -4.4398 N   0  0  0  0  0  0  0  0  0  0  0  0
    5.3911    0.2260   -7.6844 C   0  0  0  0  0  0  0  0  0  0  0  0
    1.8424    0.0411    1.3337 H   0  0  0  0  0  0  0  0  0  0  0  0
    0.2918    0.0983    3.2139 H   0  0  0  0  0  0  0  0  0  0  0  0
   -3.0221   -0.4279    0.5012 H   0  0  0  0  0  0  0  0  0  0  0  0
    2.6467   -1.6463   -0.3372 H   0  0  0  0  0  0  0  0  0  0  0  0
    1.7630    0.9818   -4.4243 H   0  0  0  0  0  0  0  0  0  0  0  0
    0.1606    1.0833   -2.5668 H   0  0  0  0  0  0  0  0  0  0  0  0
   -4.1870   -1.5224    5.1949 H   0  0  0  0  0  0  0  0  0  0  0  0
   -4.3910   -0.4058    2.4207 H   0  0  0  0  0  0  0  0  0  0  0  0
   -3.5167   -1.8861    3.0027 H   0  0  0  0  0  0  0  0  0  0  0  0
   -5.9419    0.1153    5.7310 H   0  0  0  0  0  0  0  0  0  0  0  0
   -6.3215   -0.6748    4.1505 H   0  0  0  0  0  0  0  0  0  0  0  0
   -6.5887    1.5894    4.1084 H   0  0  0  0  0  0  0  0  0  0  0  0
    6.4916    0.2501   -7.8314 H   0  0  0  0  0  0  0  0  0  0  0  0
    4.9800    1.2376   -7.8867 H   0  0  0  0  0  0  0  0  0  0  0  0
    4.9423   -0.5005   -8.3933 H   0  0  0  0  0  0  0  0  0  0  0  0
  1  2  2  0
  2  3  1  0
  3  4  2  0
  4  5  1  0
  5  6  2  0
  1  6  1  0
  1  7  1  0
  2  8  1  0
  5  9  1  0
  8 10  2  0
 10 11  1  0
 11 12  2  0
 12 13  1  0
 13 14  2  0
  8 14  1  0
  9 15  1  0
 15 16  1  0
 16 17  1  0
 17 18  1  0
  9 18  1  0
 15 19  2  0
 17 20  1  0
 20 21  1  0
 12 22  1  0
 22 23  2  0
 23 24  1  0
 24 25  1  0
 25 26  2  0
 22 26  1  0
 24 27  1  0
  3 28  1  0
  4 29  1  0
  6 30  1  0
 10 31  1  0
 13 32  1  0
 14 33  1  0
 17 34  1  1
 18 35  1  0
 18 36  1  0
 20 37  1  0
 20 38  1  0
 21 39  1  0
 27 40  1  0
 27 41  1  0
 27 42  1  0
M  END
>  <Connectivity>  (1) 
[[0, 1, 2, 5], [1, 3], [2, 4], [5, 6]]

>  <DOI>  (1) 
10.1124/dmd.113.056697

>  <Clean Energy>  (1) 
38.6628

$$$$
1
     RDKit          3D

 46 49  0  0  0  0  0  0  0  0999 V2000
   -0.3758    0.5509    0.3131 C   0  0  0  0  0  0  0  0  0  0  0  0
    0.2265   -0.7179    0.2642 C   0  0  0  0  0  0  0  0  0  0  0  0
    1.4767   -0.8531   -0.3593 C   0  0  0  0  0  0  0  0  0  0  0  0
    2.1230    0.2582   -0.9062 C   0  0  0  0  0  0  0  0  0  0  0  0
    1.5342    1.5308   -0.8400 C   0  0  0  0  0  0  0  0  0  0  0  0
    0.2706    1.6608   -0.2401 C   0  0  0  0  0  0  0  0  0  0  0  0
   -1.6010    0.7137    0.8697 F   0  0  0  0  0  0  0  0  0  0  0  0
   -0.4385   -1.9043    0.8538 C   0  0  0  0  0  0  0  0  0  0  0  0
    2.1913    2.6836   -1.4044 N   0  0  0  0  0  0  0  0  0  0  0  0
   -0.9657   -1.8627    2.1542 C   0  0  0  0  0  0  0  0  0  0  0  0
   -1.5574   -2.9630    2.6900 N   0  0  0  0  0  0  0  0  0  0  0  0
   -1.6682   -4.1316    2.0021 C   0  0  0  0  0  0  0  0  0  0  0  0
   -1.1555   -4.2168    0.7001 C   0  0  0  0  0  0  0  0  0  0  0  0
   -0.5362   -3.1031    0.1311 C   0  0  0  0  0  0  0  0  0  0  0  0
    3.5831    2.8968   -1.5515 C   0  0  0  0  0  0  0  0  0  0  0  0
    3.8694    4.0620   -2.2217 O   0  0  0  0  0  0  0  0  0  0  0  0
    2.6601    4.7301   -2.5668 C   0  0  2  0  0  0  0  0  0  0  0  0
    1.5205    3.8446   -1.9843 C   0  0  0  0  0  0  0  0  0  0  0  0
    4.4705    2.1442   -1.0706 O   0  0  0  0  0  0  0  0  0  0  0  0
    2.5699    4.8840   -4.0863 C   0  0  0  0  0  0  0  0  0  0  0  0
    1.4023    5.5958   -4.4172 O   0  0  0  0  0  0  0  0  0  0  0  0
   -2.3189   -5.2865    2.6405 C   0  0  0  0  0  0  0  0  0  0  0  0
   -2.7692   -5.2910    3.9102 N   0  0  0  0  0  0  0  0  0  0  0  0
   -3.2636   -6.5073    4.0618 N   0  0  0  0  0  0  0  0  0  0  0  0
   -3.1378   -7.2165    2.9546 N   0  0  0  0  0  0  0  0  0  0  0  0
   -2.5412   -6.4730    2.0370 N   0  0  0  0  0  0  0  0  0  0  0  0
   -3.8887   -6.9968    5.2809 C   0  0  0  0  0  0  0  0  0  0  0  0
    1.4022    5.8755   -6.0886 S   0  0  1  0  0  6  0  0  0  0  0  0
    1.4810    4.5721   -6.8358 O   0  0  0  0  0  0  0  0  0  0  0  0
    0.1273    6.5754   -6.4675 O   0  0  0  0  0  0  0  0  0  0  0  0
    2.7085    6.8461   -6.5141 O   0  0  0  0  0  0  0  0  0  0  0  0
    1.9619   -1.8201   -0.4121 H   0  0  0  0  0  0  0  0  0  0  0  0
    3.0738    0.1118   -1.3994 H   0  0  0  0  0  0  0  0  0  0  0  0
   -0.2171    2.6253   -0.1898 H   0  0  0  0  0  0  0  0  0  0  0  0
   -0.8920   -0.9615    2.7511 H   0  0  0  0  0  0  0  0  0  0  0  0
   -1.2285   -5.1344    0.1304 H   0  0  0  0  0  0  0  0  0  0  0  0
   -0.1446   -3.1727   -0.8769 H   0  0  0  0  0  0  0  0  0  0  0  0
    2.6504    5.7342   -2.0878 H   0  0  0  0  0  0  0  0  0  0  0  0
    0.7980    3.5146   -2.7627 H   0  0  0  0  0  0  0  0  0  0  0  0
    0.9805    4.4040   -1.1909 H   0  0  0  0  0  0  0  0  0  0  0  0
    3.4760    5.4314   -4.4285 H   0  0  0  0  0  0  0  0  0  0  0  0
    2.5556    3.8734   -4.5510 H   0  0  0  0  0  0  0  0  0  0  0  0
   -3.4075   -7.9480    5.5899 H   0  0  0  0  0  0  0  0  0  0  0  0
   -3.7732   -6.2524    6.0971 H   0  0  0  0  0  0  0  0  0  0  0  0
   -4.9701   -7.1730    5.1012 H   0  0  0  0  0  0  0  0  0  0  0  0
    2.6436    7.6339   -5.9162 H   0  0  0  0  0  0  0  0  0  0  0  0
  1  2  2  0
  2  3  1  0
  3  4  2  0
  4  5  1  0
  5  6  2  0
  1  6  1  0
  1  7  1  0
  2  8  1  0
  5  9  1  0
  8 10  2  0
 10 11  1  0
 11 12  2  0
 12 13  1  0
 13 14  2  0
  8 14  1  0
  9 15  1  0
 15 16  1  0
 16 17  1  0
 17 18  1  0
  9 18  1  0
 15 19  2  0
 17 20  1  0
 20 21  1  0
 12 22  1  0
 22 23  2  0
 23 24  1  0
 24 25  1  0
 25 26  2  0
 22 26  1  0
 24 27  1  0
 28 29  2  0
 28 30  2  0
 28 31  1  1
 21 28  1  0
  3 32  1  0
  4 33  1  0
  6 34  1  0
 10 35  1  0
 13 36  1  0
 14 37  1  0
 17 38  1  1
 18 39  1  0
 18 40  1  0
 20 41  1  0
 20 42  1  0
 27 43  1  0
 27 44  1  0
 27 45  1  0
 31 46  1  0
M  END
>  <Name>  (2) 
2

>  <Majority>  (2) 
Undefined

>  <Enzyme>  (2) 
Undefined

>  <Species>  (2) 
Human

>  <Tissue>  (2) 
in vivo-urine

>  <SOM>  (2) 
[20]

>  <Metabolism Type>  (2) 
C-OH to C-O-SO3

$$$$
2
     RDKit          3D

 39 42  0  0  0  0  0  0  0  0999 V2000
    0.2426   -1.4022    0.0953 C   0  0  0  0  0  0  0  0  0  0  0  0
   -0.5446   -0.3763    0.6511 C   0  0  0  0  0  0  0  0  0  0  0  0
   -0.2633    0.9570    0.3098 C   0  0  0  0  0  0  0  0  0  0  0  0
    0.7704    1.2608   -0.5796 C   0  0  0  0  0  0  0  0  0  0  0  0
    1.5448    0.2371   -1.1511 C   0  0  0  0  0  0  0  0  0  0  0  0
    1.2780   -1.0947   -0.7928 C   0  0  0  0  0  0  0  0  0  0  0  0
    0.0364   -2.6995    0.4377 F   0  0  0  0  0  0  0  0  0  0  0  0
   -1.6496   -0.6836    1.5917 C   0  0  0  0  0  0  0  0  0  0  0  0
    2.6210    0.5420   -2.0607 N   0  0  0  0  0  0  0  0  0  0  0  0
   -2.5782   -1.6981    1.3078 C   0  0  0  0  0  0  0  0  0  0  0  0
   -3.5911   -1.9633    2.1748 N   0  0  0  0  0  0  0  0  0  0  0  0
   -3.7497   -1.2715    3.3358 C   0  0  0  0  0  0  0  0  0  0  0  0
   -2.8488   -0.2464    3.6563 C   0  0  0  0  0  0  0  0  0  0  0  0
   -1.8020    0.0463    2.7807 C   0  0  0  0  0  0  0  0  0  0  0  0
    2.7255    1.6535   -2.9318 C   0  0  0  0  0  0  0  0  0  0  0  0
    3.9348    1.6994   -3.5842 O   0  0  0  0  0  0  0  0  0  0  0  0
    4.7389    0.5933   -3.1864 C   0  0  2  0  0  0  0  0  0  0  0  0
    3.8532   -0.2278   -2.2061 C   0  0  0  0  0  0  0  0  0  0  0  0
    1.7990    2.4797   -3.1413 O   0  0  0  0  0  0  0  0  0  0  0  0
    6.0243    1.0924   -2.5236 C   0  0  0  0  0  0  0  0  0  0  0  0
    6.7715    1.8350   -3.4462 O   0  0  0  0  0  0  0  0  0  0  0  0
   -4.8662   -1.6103    4.2326 C   0  0  0  0  0  0  0  0  0  0  0  0
   -5.7657   -2.5811    3.9831 N   0  0  0  0  0  0  0  0  0  0  0  0
   -6.5744   -2.5430    5.0276 N   0  0  0  0  0  0  0  0  0  0  0  0
   -6.1996   -1.6029    5.8777 N   0  0  0  0  0  0  0  0  0  0  0  0
   -5.1236   -0.9952    5.4050 N   0  0  0  0  0  0  0  0  0  0  0  0
   -0.8508    1.7662    0.7259 H   0  0  0  0  0  0  0  0  0  0  0  0
    0.9762    2.2994   -0.7974 H   0  0  0  0  0  0  0  0  0  0  0  0
    1.8676   -1.9025   -1.2051 H   0  0  0  0  0  0  0  0  0  0  0  0
   -2.5100   -2.2672    0.3899 H   0  0  0  0  0  0  0  0  0  0  0  0
   -2.9511    0.3207    4.5731 H   0  0  0  0  0  0  0  0  0  0  0  0
   -1.1030    0.8324    3.0384 H   0  0  0  0  0  0  0  0  0  0  0  0
    4.9905   -0.0198   -4.0797 H   0  0  0  0  0  0  0  0  0  0  0  0
    4.3332   -0.3655   -1.2123 H   0  0  0  0  0  0  0  0  0  0  0  0
    3.6267   -1.2216   -2.6484 H   0  0  0  0  0  0  0  0  0  0  0  0
    5.7704    1.7294   -1.6462 H   0  0  0  0  0  0  0  0  0  0  0  0
    6.6220    0.2195   -2.1775 H   0  0  0  0  0  0  0  0  0  0  0  0
    7.5863    2.1325   -2.9641 H   0  0  0  0  0  0  0  0  0  0  0  0
   -7.3974   -3.1702    5.1629 H   0  0  0  0  0  0  0  0  0  0  0  0
  1  2  2  0
  2  3  1  0
  3  4  2  0
  4  5  1  0
  5  6  2  0
  1  6  1  0
  1  7  1  0
  2  8  1  0
  5  9  1  0
  8 10  2  0
 10 11  1  0
 11 12  2  0
 12 13  1  0
 13 14  2  0
  8 14  1  0
  9 15  1  0
 15 16  1  0
 16 17  1  0
 17 18  1  0
  9 18  1  0
 15 19  2  0
 17 20  1  0
 20 21  1  0
 12 22  1  0
 22 23  2  0
 23 24  1  0
 24 25  1  0
 25 26  2  0
 22 26  1  0
  3 27  1  0
  4 28  1  0
  6 29  1  0
 10 30  1  0
 13 31  1  0
 14 32  1  0
 17 33  1  6
 18 34  1  0
 18 35  1  0
 20 36  1  0
 20 37  1  0
 21 38  1  0
 24 39  1  0
M  END
>  <Name>  (3) 
3

>  <Majority>  (3) 
Undefined

>  <Enzyme>  (3) 
Undefined

>  <Species>  (3) 
Human

>  <Tissue>  (3) 
in vivo-urine

>  <SOM>  (3) 
[23, 26]

>  <Metabolism Type>  (3) 
R1NCR2 to R1NH + R2=O

$$$$
3
     RDKit          3D

 43 46  0  0  0  0  0  0  0  0999 V2000
    1.7682    1.1363   -0.2658 C   0  0  0  0  0  0  0  0  0  0  0  0
    1.3059    0.1292   -1.1338 C   0  0  0  0  0  0  0  0  0  0  0  0
    0.1323   -0.5678   -0.8026 C   0  0  0  0  0  0  0  0  0  0  0  0
   -0.5636   -0.2705    0.3716 C   0  0  0  0  0  0  0  0  0  0  0  0
   -0.1103    0.7400    1.2350 C   0  0  0  0  0  0  0  0  0  0  0  0
    1.0678    1.4332    0.9077 C   0  0  0  0  0  0  0  0  0  0  0  0
    2.8809    1.8543   -0.5642 F   0  0  0  0  0  0  0  0  0  0  0  0
    2.0373   -0.2027   -2.3808 C   0  0  0  0  0  0  0  0  0  0  0  0
   -0.8301    1.0343    2.4490 N   0  0  0  0  0  0  0  0  0  0  0  0
    3.4301   -0.3817   -2.3759 C   0  0  0  0  0  0  0  0  0  0  0  0
    4.0856   -0.6945   -3.5251 N   0  0  0  0  0  0  0  0  0  0  0  0
    3.4355   -0.8462   -4.7108 C   0  0  0  0  0  0  0  0  0  0  0  0
    2.0441   -0.6826   -4.7602 C   0  0  0  0  0  0  0  0  0  0  0  0
    1.3484   -0.3638   -3.5930 C   0  0  0  0  0  0  0  0  0  0  0  0
   -0.8922    2.2705    3.1371 C   0  0  0  0  0  0  0  0  0  0  0  0
   -1.5809    2.1791    4.3235 O   0  0  0  0  0  0  0  0  0  0  0  0
   -2.0206    0.8397    4.5218 C   0  0  2  0  0  0  0  0  0  0  0  0
   -1.6002    0.0739    3.2339 C   0  0  0  0  0  0  0  0  0  0  0  0
   -0.4313    3.3539    2.6910 O   0  0  0  0  0  0  0  0  0  0  0  0
   -3.5315    0.8153    4.7604 C   0  0  0  0  0  0  0  0  0  0  0  0
   -3.9469   -0.5104    4.9857 O   0  0  0  0  0  0  0  0  0  0  0  0
    4.2048   -1.1825   -5.9194 C   0  0  0  0  0  0  0  0  0  0  0  0
    5.5405   -1.3544   -5.9393 N   0  0  0  0  0  0  0  0  0  0  0  0
    5.8068   -1.6382   -7.2021 N   0  0  0  0  0  0  0  0  0  0  0  0
    4.7010   -1.6425   -7.9260 N   0  0  0  0  0  0  0  0  0  0  0  0
    3.6711   -1.3583   -7.1455 N   0  0  0  0  0  0  0  0  0  0  0  0
   -5.6275   -0.5143    5.1969 S   0  0  1  0  0  6  0  0  0  0  0  0
   -6.0905   -1.9283    5.4052 O   0  0  0  0  0  0  0  0  0  0  0  0
   -5.9973    0.3005    6.4052 O   0  0  0  0  0  0  0  0  0  0  0  0
   -6.3914    0.1170    3.8378 O   0  0  0  0  0  0  0  0  0  0  0  0
   -0.2390   -1.3556   -1.4466 H   0  0  0  0  0  0  0  0  0  0  0  0
   -1.4635   -0.8264    0.5977 H   0  0  0  0  0  0  0  0  0  0  0  0
    1.4636    2.1920    1.5681 H   0  0  0  0  0  0  0  0  0  0  0  0
    3.9946   -0.2915   -1.4571 H   0  0  0  0  0  0  0  0  0  0  0  0
    1.5008   -0.7980   -5.6897 H   0  0  0  0  0  0  0  0  0  0  0  0
    0.2747   -0.2290   -3.6388 H   0  0  0  0  0  0  0  0  0  0  0  0
   -1.4940    0.4149    5.4047 H   0  0  0  0  0  0  0  0  0  0  0  0
   -0.9664   -0.8022    3.4906 H   0  0  0  0  0  0  0  0  0  0  0  0
   -2.4841   -0.2638    2.6503 H   0  0  0  0  0  0  0  0  0  0  0  0
   -4.0407    1.2496    3.8703 H   0  0  0  0  0  0  0  0  0  0  0  0
   -3.7506    1.4450    5.6515 H   0  0  0  0  0  0  0  0  0  0  0  0
    6.7611   -1.8325   -7.5772 H   0  0  0  0  0  0  0  0  0  0  0  0
   -6.0353   -0.4109    3.0791 H   0  0  0  0  0  0  0  0  0  0  0  0
  1  2  2  0
  2  3  1  0
  3  4  2  0
  4  5  1  0
  5  6  2  0
  1  6  1  0
  1  7  1  0
  2  8  1  0
  5  9  1  0
  8 10  2  0
 10 11  1  0
 11 12  2  0
 12 13  1  0
 13 14  2  0
  8 14  1  0
  9 15  1  0
 15 16  1  0
 16 17  1  0
 17 18  1  0
  9 18  1  0
 15 19  2  0
 17 20  1  0
 20 21  1  0
 12 22  1  0
 22 23  2  0
 23 24  1  0
 24 25  1  0
 25 26  2  0
 22 26  1  0
 27 28  2  0
 27 29  2  0
 27 30  1  6
 21 27  1  0
  3 31  1  0
  4 32  1  0
  6 33  1  0
 10 34  1  0
 13 35  1  0
 14 36  1  0
 17 37  1  1
 18 38  1  0
 18 39  1  0
 20 40  1  0
 20 41  1  0
 24 42  1  0
 30 43  1  0
M  END
>  <Name>  (4) 
4

>  <Majority>  (4) 
Undefined

>  <Enzyme>  (4) 
Undefined

>  <Species>  (4) 
Human

>  <Tissue>  (4) 
in vivo-urine

>  <SOM>  (4) 
[23, 26]

>  <Metabolism Type>  (4) 
R1NCR2 to R1NH + R2=O

$$$$
4
     RDKit          3D

 43 46  0  0  0  0  0  0  0  0999 V2000
    0.8602   -0.5875    1.2759 C   0  0  0  0  0  0  0  0  0  0  0  0
   -0.5284   -0.7853    1.1563 C   0  0  0  0  0  0  0  0  0  0  0  0
   -1.2342   -0.0741    0.1720 C   0  0  0  0  0  0  0  0  0  0  0  0
   -0.5692    0.8123   -0.6786 C   0  0  0  0  0  0  0  0  0  0  0  0
    0.8141    1.0188   -0.5556 C   0  0  0  0  0  0  0  0  0  0  0  0
    1.5225    0.3025    0.4243 C   0  0  0  0  0  0  0  0  0  0  0  0
    1.5742   -1.2320    2.2337 F   0  0  0  0  0  0  0  0  0  0  0  0
   -1.2475   -1.7283    2.0473 C   0  0  0  0  0  0  0  0  0  0  0  0
    1.4930    1.9277   -1.4449 N   0  0  0  0  0  0  0  0  0  0  0  0
   -0.7476   -3.0180    2.2889 C   0  0  0  0  0  0  0  0  0  0  0  0
   -1.4224   -3.8745    3.1008 N   0  0  0  0  0  0  0  0  0  0  0  0
   -2.5915   -3.5289    3.7053 C   0  0  0  0  0  0  0  0  0  0  0  0
   -3.1300   -2.2532    3.4869 C   0  0  0  0  0  0  0  0  0  0  0  0
   -2.4568   -1.3569    2.6552 C   0  0  0  0  0  0  0  0  0  0  0  0
    2.6733    2.6671   -1.1871 C   0  0  0  0  0  0  0  0  0  0  0  0
    3.1216    3.3472   -2.2950 O   0  0  0  0  0  0  0  0  0  0  0  0
    2.2498    3.1016   -3.3940 C   0  0  2  0  0  0  0  0  0  0  0  0
    1.1124    2.2038   -2.8271 C   0  0  0  0  0  0  0  0  0  0  0  0
    3.2258    2.7497   -0.0589 O   0  0  0  0  0  0  0  0  0  0  0  0
    3.0186    2.4306   -4.5363 C   0  0  0  0  0  0  0  0  0  0  0  0
    3.6178    1.2422   -4.0760 O   0  0  0  0  0  0  0  0  0  0  0  0
   -3.2710   -4.5022    4.5752 C   0  0  0  0  0  0  0  0  0  0  0  0
   -2.8082   -5.7421    4.8247 N   0  0  0  0  0  0  0  0  0  0  0  0
   -3.7108   -6.2619    5.6381 N   0  0  0  0  0  0  0  0  0  0  0  0
   -4.6790   -5.3954    5.8805 N   0  0  0  0  0  0  0  0  0  0  0  0
   -4.4312   -4.2738    5.2240 N   0  0  0  0  0  0  0  0  0  0  0  0
    4.4621    0.5373   -5.3633 S   0  0  1  0  0  6  0  0  0  0  0  0
    5.5901    1.4351   -5.7910 O   0  0  0  0  0  0  0  0  0  0  0  0
    5.0264   -0.7775   -4.9045 O   0  0  0  0  0  0  0  0  0  0  0  0
    3.4241    0.2659   -6.6594 O   0  0  0  0  0  0  0  0  0  0  0  0
   -2.3010   -0.2164    0.0503 H   0  0  0  0  0  0  0  0  0  0  0  0
   -1.1411    1.3440   -1.4272 H   0  0  0  0  0  0  0  0  0  0  0  0
    2.5936    0.4112    0.5216 H   0  0  0  0  0  0  0  0  0  0  0  0
    0.1683   -3.3517    1.8188 H   0  0  0  0  0  0  0  0  0  0  0  0
   -4.0589   -1.9515    3.9544 H   0  0  0  0  0  0  0  0  0  0  0  0
   -2.8723   -0.3693    2.4977 H   0  0  0  0  0  0  0  0  0  0  0  0
    1.8298    4.0678   -3.7502 H   0  0  0  0  0  0  0  0  0  0  0  0
    0.1501    2.7590   -2.8484 H   0  0  0  0  0  0  0  0  0  0  0  0
    1.0013    1.2506   -3.3890 H   0  0  0  0  0  0  0  0  0  0  0  0
    3.7932    3.1447   -4.8954 H   0  0  0  0  0  0  0  0  0  0  0  0
    2.3040    2.2203   -5.3634 H   0  0  0  0  0  0  0  0  0  0  0  0
   -3.6653   -7.2259    6.0352 H   0  0  0  0  0  0  0  0  0  0  0  0
    3.9909   -0.1473   -7.3588 H   0  0  0  0  0  0  0  0  0  0  0  0
  1  2  2  0
  2  3  1  0
  3  4  2  0
  4  5  1  0
  5  6  2  0
  1  6  1  0
  1  7  1  0
  2  8  1  0
  5  9  1  0
  8 10  2  0
 10 11  1  0
 11 12  2  0
 12 13  1  0
 13 14  2  0
  8 14  1  0
  9 15  1  0
 15 16  1  0
 16 17  1  0
 17 18  1  0
  9 18  1  0
 15 19  2  0
 17 20  1  0
 20 21  1  0
 12 22  1  0
 22 23  2  0
 23 24  1  0
 24 25  1  0
 25 26  2  0
 22 26  1  0
 27 28  2  0
 27 29  2  0
 27 30  1  6
 21 27  1  0
  3 31  1  0
  4 32  1  0
  6 33  1  0
 10 34  1  0
 13 35  1  0
 14 36  1  0
 17 37  1  6
 18 38  1  0
 18 39  1  0
 20 40  1  0
 20 41  1  0
 24 42  1  0
 30 43  1  0
M  END
>  <Name>  (5) 
5

>  <Majority>  (5) 
Undefined

>  <Enzyme>  (5) 
Undefined

>  <Species>  (5) 
Human

>  <Tissue>  (5) 
in vivo-urine

>  <SOM>  (5) 
[20]

>  <Metabolism Type>  (5) 
C-OH to C-O-SO3

$$$$
5
     RDKit          3D

 40 43  0  0  0  0  0  0  0  0999 V2000
   -1.6626   -0.9319   -0.0465 C   0  0  0  0  0  0  0  0  0  0  0  0
   -0.2899   -1.0683   -0.3261 C   0  0  0  0  0  0  0  0  0  0  0  0
    0.1634   -0.8362   -1.6352 C   0  0  0  0  0  0  0  0  0  0  0  0
   -0.7347   -0.4915   -2.6485 C   0  0  0  0  0  0  0  0  0  0  0  0
   -2.1081   -0.3742   -2.3762 C   0  0  0  0  0  0  0  0  0  0  0  0
   -2.5586   -0.5845   -1.0623 C   0  0  0  0  0  0  0  0  0  0  0  0
   -2.1347   -1.0980    1.2153 F   0  0  0  0  0  0  0  0  0  0  0  0
    0.6747   -1.4401    0.7376 C   0  0  0  0  0  0  0  0  0  0  0  0
   -3.0401   -0.0079   -3.4136 N   0  0  0  0  0  0  0  0  0  0  0  0
    0.4072   -2.5032    1.6152 C   0  0  0  0  0  0  0  0  0  0  0  0
    1.3041   -2.8386    2.5802 N   0  0  0  0  0  0  0  0  0  0  0  0
    2.4804   -2.1728    2.7377 C   0  0  0  0  0  0  0  0  0  0  0  0
    2.7906   -1.1085    1.8798 C   0  0  0  0  0  0  0  0  0  0  0  0
    1.8868   -0.7469    0.8796 C   0  0  0  0  0  0  0  0  0  0  0  0
   -2.9288   -0.2621   -4.8025 C   0  0  0  0  0  0  0  0  0  0  0  0
   -3.9430    0.3186   -5.5269 O   0  0  0  0  0  0  0  0  0  0  0  0
   -4.8066    1.0360   -4.6522 C   0  0  2  0  0  0  0  0  0  0  0  0
   -4.2735    0.7496   -3.2202 C   0  0  0  0  0  0  0  0  0  0  0  0
   -2.0442   -0.9928   -5.3207 O   0  0  0  0  0  0  0  0  0  0  0  0
   -6.2245    0.5797   -4.8358 C   0  0  0  0  0  0  0  0  0  0  0  0
   -7.1285    1.1173   -4.2163 O   0  0  0  0  0  0  0  0  0  0  0  0
    3.4067   -2.5843    3.8044 C   0  0  0  0  0  0  0  0  0  0  0  0
    3.1700   -3.6004    4.6572 N   0  0  0  0  0  0  0  0  0  0  0  0
    4.2398   -3.6125    5.4331 N   0  0  0  0  0  0  0  0  0  0  0  0
    5.1018   -2.6771    5.0743 N   0  0  0  0  0  0  0  0  0  0  0  0
    4.6007   -2.0045    4.0510 N   0  0  0  0  0  0  0  0  0  0  0  0
    4.4814   -4.5917    6.4812 C   0  0  0  0  0  0  0  0  0  0  0  0
    1.2149   -0.9305   -1.8772 H   0  0  0  0  0  0  0  0  0  0  0  0
   -0.3463   -0.2933   -3.6376 H   0  0  0  0  0  0  0  0  0  0  0  0
   -3.6080   -0.4863   -0.8192 H   0  0  0  0  0  0  0  0  0  0  0  0
   -0.5048   -3.0784    1.5231 H   0  0  0  0  0  0  0  0  0  0  0  0
    3.7194   -0.5612    1.9820 H   0  0  0  0  0  0  0  0  0  0  0  0
    2.1271    0.0827    0.2263 H   0  0  0  0  0  0  0  0  0  0  0  0
   -4.7309    2.1215   -4.8806 H   0  0  0  0  0  0  0  0  0  0  0  0
   -4.9941    0.1445   -2.6275 H   0  0  0  0  0  0  0  0  0  0  0  0
   -4.0565    1.7004   -2.6871 H   0  0  0  0  0  0  0  0  0  0  0  0
   -6.4552   -0.2269   -5.5245 H   0  0  0  0  0  0  0  0  0  0  0  0
    4.9966   -5.4755    6.0510 H   0  0  0  0  0  0  0  0  0  0  0  0
    5.1172   -4.1473    7.2758 H   0  0  0  0  0  0  0  0  0  0  0  0
    3.5175   -4.9117    6.9302 H   0  0  0  0  0  0  0  0  0  0  0  0
  1  2  2  0
  2  3  1  0
  3  4  2  0
  4  5  1  0
  5  6  2  0
  1  6  1  0
  1  7  1  0
  2  8  1  0
  5  9  1  0
  8 10  2  0
 10 11  1  0
 11 12  2  0
 12 13  1  0
 13 14  2  0
  8 14  1  0
  9 15  1  0
 15 16  1  0
 16 17  1  0
 17 18  1  0
  9 18  1  0
 15 19  2  0
 17 20  1  0
 20 21  2  0
 12 22  1  0
 22 23  2  0
 23 24  1  0
 24 25  1  0
 25 26  2  0
 22 26  1  0
 24 27  1  0
  3 28  1  0
  4 29  1  0
  6 30  1  0
 10 31  1  0
 13 32  1  0
 14 33  1  0
 17 34  1  6
 18 35  1  0
 18 36  1  0
 20 37  1  0
 27 38  1  0
 27 39  1  0
 27 40  1  0
M  END
>  <Majority>  (6) 
Undefined

>  <Enzyme>  (6) 
Undefined

>  <Species>  (6) 
Human

>  <Tissue>  (6) 
in vivo-urine

>  <SOM>  (6) 
[20, 19]

>  <Metabolism Type>  (6) 
RC-OH to RC=O

$$$$
6
     RDKit          3D

 41 44  0  0  0  0  0  0  0  0999 V2000
    0.3967    0.7327   -1.5048 C   0  0  0  0  0  0  0  0  0  0  0  0
    0.4295   -0.1231   -0.3876 C   0  0  0  0  0  0  0  0  0  0  0  0
    1.5652   -0.1188    0.4388 C   0  0  0  0  0  0  0  0  0  0  0  0
    2.6395    0.7315    0.1663 C   0  0  0  0  0  0  0  0  0  0  0  0
    2.6010    1.6014   -0.9355 C   0  0  0  0  0  0  0  0  0  0  0  0
    1.4738    1.5829   -1.7747 C   0  0  0  0  0  0  0  0  0  0  0  0
   -0.6556    0.7157   -2.3620 F   0  0  0  0  0  0  0  0  0  0  0  0
   -0.7063   -1.0273   -0.0825 C   0  0  0  0  0  0  0  0  0  0  0  0
    3.7179    2.4692   -1.2145 N   0  0  0  0  0  0  0  0  0  0  0  0
   -2.0295   -0.5576   -0.1062 C   0  0  0  0  0  0  0  0  0  0  0  0
   -3.0602   -1.3953    0.1839 N   0  0  0  0  0  0  0  0  0  0  0  0
   -2.8617   -2.7027    0.5049 C   0  0  0  0  0  0  0  0  0  0  0  0
   -1.5565   -3.2122    0.5460 C   0  0  0  0  0  0  0  0  0  0  0  0
   -0.4815   -2.3711    0.2545 C   0  0  0  0  0  0  0  0  0  0  0  0
    3.6927    3.7200   -1.8786 C   0  0  0  0  0  0  0  0  0  0  0  0
    4.9517    4.2348   -2.0804 O   0  0  0  0  0  0  0  0  0  0  0  0
    5.9255    3.3345   -1.5646 C   0  0  2  0  0  0  0  0  0  0  0  0
    5.1170    2.1757   -0.9162 C   0  0  0  0  0  0  0  0  0  0  0  0
    2.6397    4.3342   -2.1934 O   0  0  0  0  0  0  0  0  0  0  0  0
    6.8034    4.0416   -0.5719 C   0  0  0  0  0  0  0  0  0  0  0  0
    8.0534    4.0312   -0.7219 O   0  0  0  0  0  0  0  0  0  0  0  0
   -4.0213   -3.5572    0.8057 C   0  0  0  0  0  0  0  0  0  0  0  0
   -5.2984   -3.1274    0.7887 N   0  0  0  0  0  0  0  0  0  0  0  0
   -5.9945   -4.2048    1.1070 N   0  0  0  0  0  0  0  0  0  0  0  0
   -5.2015   -5.2381    1.3310 N   0  0  0  0  0  0  0  0  0  0  0  0
   -3.9470   -4.8627    1.1414 N   0  0  0  0  0  0  0  0  0  0  0  0
   -7.4380   -4.2252    1.2851 C   0  0  0  0  0  0  0  0  0  0  0  0
    6.2517    4.7134    0.5160 O   0  0  0  0  0  0  0  0  0  0  0  0
    1.6150   -0.7636    1.3077 H   0  0  0  0  0  0  0  0  0  0  0  0
    3.4944    0.7181    0.8287 H   0  0  0  0  0  0  0  0  0  0  0  0
    1.4355    2.2008   -2.6610 H   0  0  0  0  0  0  0  0  0  0  0  0
   -2.2432    0.4778   -0.3372 H   0  0  0  0  0  0  0  0  0  0  0  0
   -1.3692   -4.2484    0.7986 H   0  0  0  0  0  0  0  0  0  0  0  0
    0.5239   -2.7729    0.2778 H   0  0  0  0  0  0  0  0  0  0  0  0
    6.5358    2.9400   -2.4070 H   0  0  0  0  0  0  0  0  0  0  0  0
    5.4033    1.2014   -1.3681 H   0  0  0  0  0  0  0  0  0  0  0  0
    5.2672    2.1310    0.1845 H   0  0  0  0  0  0  0  0  0  0  0  0
   -7.8343   -5.2361    1.0524 H   0  0  0  0  0  0  0  0  0  0  0  0
   -7.9142   -3.4880    0.6047 H   0  0  0  0  0  0  0  0  0  0  0  0
   -7.6854   -3.9672    2.3358 H   0  0  0  0  0  0  0  0  0  0  0  0
    5.2497    4.7428    0.6623 H   0  0  0  0  0  0  0  0  0  0  0  0
  1  2  2  0
  2  3  1  0
  3  4  2  0
  4  5  1  0
  5  6  2  0
  1  6  1  0
  1  7  1  0
  2  8  1  0
  5  9  1  0
  8 10  2  0
 10 11  1  0
 11 12  2  0
 12 13  1  0
 13 14  2  0
  8 14  1  0
  9 15  1  0
 15 16  1  0
 16 17  1  0
 17 18  1  0
  9 18  1  0
 15 19  2  0
 17 20  1  0
 20 21  2  0
 12 22  1  0
 22 23  2  0
 23 24  1  0
 24 25  1  0
 25 26  2  0
 22 26  1  0
 24 27  1  0
 20 28  1  0
  3 29  1  0
  4 30  1  0
  6 31  1  0
 10 32  1  0
 13 33  1  0
 14 34  1  0
 17 35  1  6
 18 36  1  0
 18 37  1  0
 27 38  1  0
 27 39  1  0
 27 40  1  0
 28 41  1  0
M  END
>  <Majority>  (7) 
Undefined

>  <Enzyme>  (7) 
Undefined

>  <Species>  (7) 
Human

>  <Tissue>  (7) 
in vivo-urine

>  <SOM>  (7) 
[19]

>  <Metabolism Type>  (7) 
RCH=O to RCOOH

$$$$
