0
  DSViewer          3D                             0

 34 37  0  0  0  0  0  0  0  0999 V2000
    1.7095   -6.6091    0.0137 N   0  0
    0.6024   -5.9865    0.0701 C   0  0
    0.6416   -4.4932    0.1500 C   0  0
    1.8263   -3.8993    0.1635 C   0  0
    2.9917   -4.6550    0.0961 N   0  0
    2.9445   -5.9251    0.0218 C   0  0
   -0.4505   -3.7125    0.2090 F   0  0
    4.2228   -6.7064   -0.0501 C   0  0
   -0.6043   -6.7676    0.0732 N   0  0
    1.8818   -2.5194    0.2458 N   0  0
    3.0395   -1.8916    0.2374 N   0  0
    3.0333   -0.5257    0.0989 C   0  0
    4.3439    0.2744   -0.1574 C   0  0  2  0  0  0
    5.6654   -0.3639    0.4551 C   0  0
    6.1586   -1.6981    0.0376 N   0  0
    5.4660   -2.5714   -0.8008 C   0  0
    5.9575   -3.6715   -1.0800 O   0  0
    1.9309    0.0102    0.0161 O   0  0
    4.3409    1.8153    0.2880 C   0  0
    3.2599    2.8186   -0.2824 C   0  0
    7.3502   -2.0793    0.4753 O   0  0
   -0.4650   -8.2132    0.1365 C   0  0
   -1.7309   -8.9576   -0.3448 C   0  0
   -2.9510   -8.3816    0.2375 N   0  0
   -3.0559   -7.0180   -0.2752 C   0  0  2  0  0  0
   -1.9071   -6.1662    0.2678 C   0  0
   -4.1067   -9.1608   -0.2367 C   0  0
   -5.4108   -8.4910    0.2503 C   0  0
   -5.4893   -7.1582   -0.2890 O   0  0
   -4.3831   -6.3721    0.1765 C   0  0
    1.8779    2.7476    0.3703 C   0  0
    1.1818    3.9630   -0.2686 C   0  0
    2.3341    5.0077   -0.4113 C   0  0
    3.5849    4.2538    0.1076 C   0  0
  1  2  2  0  0  0
  2  3  1  0  0  0
  3  4  2  0  0  0
  4  5  1  0  0  0
  5  6  2  0  0  0
  1  6  1  0  0  0
  3  7  1  0  0  0
  6  8  1  0  0  0
  2  9  1  0  0  0
  4 10  1  0  0  0
 10 11  1  0  0  0
 11 12  1  0  0  0
 12 13  1  0  0  0
 13 14  1  0  0  0
 14 15  1  0  0  0
 15 16  1  0  0  0
 16 17  2  0  0  0
 12 18  2  0  0  0
 13 19  1  0  0  0
 19 20  1  0  0  0
 15 21  1  0  0  0
  9 22  1  0  0  0
 22 23  1  0  0  0
 23 24  1  0  0  0
 24 25  1  0  0  0
 25 26  1  0  0  0
  9 26  1  0  0  0
 24 27  1  0  0  0
 27 28  1  0  0  0
 28 29  1  0  0  0
 29 30  1  0  0  0
 25 30  1  0  0  0
 20 31  1  0  0  0
 31 32  1  0  0  0
 32 33  1  0  0  0
 33 34  1  0  0  0
 20 34  1  0  0  0
M  END
> <Connectivity>
[[0, 1, 2]]

> <DOI>
10.1124/dmd.114.058420

> <Clean Energy>
43.0649

$$$$
1
  SciTegic05122014312D

 46 50  0  0  0  0            999 V2000
    1.8342   -5.7044    0.0000 N   0  0
    0.9686   -5.2036    0.0000 C   0  0
    0.9694   -4.2038    0.0000 C   0  0
    1.8358   -3.7044    0.0000 C   0  0
    2.7014   -4.2052    0.0000 N   0  0
    2.7006   -5.2050    0.0000 C   0  0
    0.1038   -3.7030    0.0000 F   0  0
    3.5662   -5.7058    0.0000 C   0  0
    0.1022   -5.7030    0.0000 N   0  0
    1.8366   -2.7044    0.0000 N   0  0
    2.7030   -2.2050    0.0000 N   0  0
    2.7038   -1.2050    0.0000 C   0  0
    3.5702   -0.7058    0.0000 C   0  0
    4.4358   -1.2064    0.0000 C   0  0
    4.4350   -2.2064    0.0000 N   0  0
    3.5686   -2.7058    0.0000 C   0  0
    3.5678   -3.7058    0.0000 O   0  0
    1.8382   -0.7044    0.0000 O   0  0
    3.5710    0.2942    0.0000 C   0  0
    2.7052    0.7950    0.0000 C   0  0
    5.3006   -2.7072    0.0000 O   0  0
    0.1014   -6.7030    0.0000 C   0  0
   -0.7648   -7.2024    0.0000 C   0  0
   -1.6304   -6.7016    0.0000 N   0  0
   -1.6298   -5.7016    0.0000 C   0  0
   -0.7634   -5.2022    0.0000 C   0  0
   -2.4968   -7.2010    0.0000 C   0  0
   -3.3624   -6.7002    0.0000 C   0  0
   -3.3618   -5.7002    0.0000 O   0  0
   -2.4954   -5.2010    0.0000 C   0  0
    1.7916    0.3888    0.0000 C   0  0
    1.1232    1.1326    0.0000 C   0  0
    1.6236    1.9984    0.0000 C   0  0
    2.6018    1.7894    0.0000 C   0  0
    6.1670   -2.2078    0.0000 C   0  0  2  0  0  0
    6.1678   -1.2078    0.0000 O   0  0
    7.0342   -0.7084    0.0000 C   0  0  1  0  0  0
    7.8998   -1.2092    0.0000 C   0  0  1  0  0  0
    8.7662   -0.7100    0.0000 O   0  0
    7.8990   -2.2092    0.0000 C   0  0  2  0  0  0
    8.7646   -2.7100    0.0000 O   0  0
    7.0326   -2.7086    0.0000 C   0  0  1  0  0  0
    7.0318   -3.7086    0.0000 O   0  0
    7.0350    0.2914    0.0000 C   0  0
    7.9014    0.7908    0.0000 O   0  0
    6.1694    0.7922    0.0000 O   0  0
  1  2  2  0
  2  3  1  0
  3  4  2  0
  4  5  1  0
  5  6  2  0
  1  6  1  0
  3  7  1  0
  6  8  1  0
  2  9  1  0
  4 10  1  0
 10 11  1  0
 11 12  1  0
 12 13  1  0
 13 14  1  0
 14 15  1  0
 15 16  1  0
 16 17  2  0
 12 18  2  0
 13 19  1  0
 19 20  1  0
 15 21  1  0
  9 22  1  0
 22 23  1  0
 23 24  1  0
 24 25  1  0
 25 26  1  0
  9 26  1  0
 24 27  1  0
 27 28  1  0
 28 29  1  0
 29 30  1  0
 25 30  1  0
 20 31  1  0
 31 32  1  0
 32 33  1  0
 33 34  1  0
 20 34  1  0
 35 36  1  0
 36 37  1  0
 37 38  1  0
 38 39  1  1
 38 40  1  0
 40 41  1  6
 40 42  1  0
 42 43  1  1
 37 44  1  6
 44 45  1  0
 44 46  2  0
 42 35  1  0
 35 21  1  6
M  END
> <Name>
1

> <Majority>
Undefined

> <Enzyme>
Undefined

> <Species>
Human

> <Tissue>
in vivo-urine

> <SOM>
[20]

> <Metabolism Type>
RC-OH to RC-O-Glu

$$$$
2
  SciTegic05122014312D

 33 36  0  0  0  0            999 V2000
    1.8638   -3.8478    0.0000 N   0  0
    0.8581   -3.8642    0.0000 C   0  0
    0.3298   -3.0285    0.0000 C   0  0
    0.8156   -2.1597    0.0000 C   0  0
    1.8208   -2.1200    0.0000 N   0  0
    2.3291   -2.9679    0.0000 C   0  0
   -0.6597   -3.0550    0.0000 F   0  0
    3.3389   -2.9408    0.0000 C   0  0
    0.3836   -4.7389    0.0000 N   0  0
    0.2883   -1.2978    0.0000 N   0  0
   -0.7109   -1.3220    0.0000 N   0  0
   -1.2313   -0.4679    0.0000 C   0  0
   -0.7520    0.4102    0.0000 C   0  0
    0.2475    0.4352    0.0000 C   0  0
    0.7253    1.3142    0.0000 N   0  0
    0.2029    2.1674    0.0000 C   0  0
    0.6802    3.0463    0.0000 O   0  0
   -2.2310   -0.4916    0.0000 O   0  0
   -1.2722    1.2632    0.0000 C   0  0
   -2.2815    1.2395    0.0000 C   0  0
    0.8772   -5.6121    0.0000 C   0  0
    0.4218   -6.5045    0.0000 C   0  0
   -0.5746   -6.4955    0.0000 N   0  0
   -1.1193   -5.6519    0.0000 C   0  0
   -0.6117   -4.7898    0.0000 C   0  0
   -1.0491   -7.3994    0.0000 C   0  0
   -2.0440   -7.4144    0.0000 C   0  0
   -2.5872   -6.5737    0.0000 O   0  0
   -2.0936   -5.6908    0.0000 C   0  0
   -2.8825    2.0413    0.0000 C   0  0
   -3.8304    1.7004    0.0000 C   0  0
   -3.8080    0.7091    0.0000 C   0  0
   -2.8456    0.4113    0.0000 C   0  0
  1  2  2  0
  2  3  1  0
  3  4  2  0
  4  5  1  0
  5  6  2  0
  1  6  1  0
  3  7  1  0
  6  8  1  0
  2  9  1  0
  4 10  1  0
 10 11  1  0
 11 12  1  0
 12 13  1  0
 13 14  1  0
 14 15  1  0
 15 16  1  0
 16 17  2  0
 12 18  2  0
 13 19  1  0
 19 20  1  0
  9 21  1  0
 21 22  1  0
 22 23  1  0
 23 24  1  0
 24 25  1  0
  9 25  1  0
 23 26  1  0
 26 27  1  0
 27 28  1  0
 28 29  1  0
 24 29  1  0
 20 30  1  0
 30 31  1  0
 31 32  1  0
 32 33  1  0
 20 33  1  0
M  END
> <Name>
2

> <Majority>
Undefined

> <Enzyme>
Undefined

> <Species>
Human

> <Tissue>
in vivo-urine

> <SOM>
[14, 20]

> <Metabolism Type>
Ar-NHOH to Ar-NH2

$$$$
